
     RDKit          3D

 58 62  0  0  0  0  0  0  0  0999 V2000
   24.9710    0.2498    5.5038 O   0  0  0  0  0  0  0  0  0  0  0  0
   25.0772    1.5264    5.6547 C   0  0  0  0  0  0  0  0  0  0  0  0
   23.8686    2.2280    5.6075 N   0  0  0  0  0  0  0  0  0  0  0  0
   22.5758    1.5883    5.3998 C   0  0  0  0  0  0  0  0  0  0  0  0
   22.3154    0.6356    6.5133 C   0  0  0  0  0  0  0  0  0  0  0  0
   20.9649   -0.0311    6.3181 C   0  0  0  0  0  0  0  0  0  0  0  0
   21.0528   -0.7741    5.0010 C   0  0  0  0  0  0  0  0  0  0  0  0
   21.2282    0.2021    3.8825 C   0  0  0  0  0  0  0  0  0  0  0  0
   20.0984    1.2086    3.9015 C   0  0  0  0  0  0  0  0  0  0  0  0
   20.1661    1.9910    5.1719 C   0  0  0  0  0  0  0  0  0  0  0  0
   19.9098    1.0283    6.3360 C   0  0  0  0  0  0  0  0  0  0  0  0
   21.4930    2.6382    5.4118 C   0  0  0  0  0  0  0  0  0  0  0  0
   22.5297    0.9381    4.0375 C   0  0  0  0  0  0  0  0  0  0  0  0
   26.4118    2.0133    5.8482 C   0  0  0  0  0  0  0  0  0  0  0  0
   27.4532    1.1507    6.0826 N   0  0  0  0  0  0  0  0  0  0  0  0
   28.5800    1.8120    6.2159 N   0  0  0  0  0  0  0  0  0  0  0  0
   29.8746    1.2109    6.4725 C   0  0  0  0  0  0  0  0  0  0  0  0
   30.4884    0.9256    5.1253 C   0  0  0  0  0  0  0  0  0  0  0  0
   31.8386    0.2990    5.1900 C   0  0  0  0  0  0  0  0  0  0  0  0
   32.8591    1.1473    5.9075 C   0  0  0  0  0  0  0  0  0  0  0  0
   34.1720    0.3965    5.8988 C   0  0  0  0  0  0  0  0  0  0  0  0
   34.6524    0.1239    4.6508 F   0  0  0  0  0  0  0  0  0  0  0  0
   28.3755    3.1320    6.0823 C   0  0  0  0  0  0  0  0  0  0  0  0
   29.2011    4.2327    6.1266 C   0  0  0  0  0  0  0  0  0  0  0  0
   28.6899    5.5011    5.9390 C   0  0  0  0  0  0  0  0  0  0  0  0
   27.3309    5.5908    5.7096 C   0  0  0  0  0  0  0  0  0  0  0  0
   26.5099    4.4918    5.6662 C   0  0  0  0  0  0  0  0  0  0  0  0
   26.9991    3.2442    5.8495 C   0  0  0  0  0  0  0  0  0  0  0  0
   23.8667    3.2445    5.7363 H   0  0  0  0  0  0  0  0  0  0  0  0
   23.0358   -0.1615    6.6643 H   0  0  0  0  0  0  0  0  0  0  0  0
   22.2438    1.2570    7.4497 H   0  0  0  0  0  0  0  0  0  0  0  0
   20.7760   -0.7440    7.1460 H   0  0  0  0  0  0  0  0  0  0  0  0
   20.2153   -1.4634    4.8625 H   0  0  0  0  0  0  0  0  0  0  0  0
   22.0042   -1.3732    5.0548 H   0  0  0  0  0  0  0  0  0  0  0  0
   21.1740   -0.3229    2.9115 H   0  0  0  0  0  0  0  0  0  0  0  0
   20.1233    1.8322    3.0043 H   0  0  0  0  0  0  0  0  0  0  0  0
   19.1284    0.6671    3.8902 H   0  0  0  0  0  0  0  0  0  0  0  0
   19.3945    2.7874    5.1872 H   0  0  0  0  0  0  0  0  0  0  0  0
   18.8940    0.6327    6.1654 H   0  0  0  0  0  0  0  0  0  0  0  0
   19.9602    1.5326    7.3061 H   0  0  0  0  0  0  0  0  0  0  0  0
   21.4892    3.0901    6.4116 H   0  0  0  0  0  0  0  0  0  0  0  0
   21.7398    3.3592    4.6004 H   0  0  0  0  0  0  0  0  0  0  0  0
   22.5304    1.7803    3.2886 H   0  0  0  0  0  0  0  0  0  0  0  0
   23.3850    0.3126    3.7922 H   0  0  0  0  0  0  0  0  0  0  0  0
   29.7003    0.2930    7.0625 H   0  0  0  0  0  0  0  0  0  0  0  0
   30.4537    1.8994    7.0890 H   0  0  0  0  0  0  0  0  0  0  0  0
   29.8191    0.1648    4.6339 H   0  0  0  0  0  0  0  0  0  0  0  0
   30.4596    1.8013    4.4779 H   0  0  0  0  0  0  0  0  0  0  0  0
   31.8048   -0.7520    5.5439 H   0  0  0  0  0  0  0  0  0  0  0  0
   32.2040    0.2277    4.1388 H   0  0  0  0  0  0  0  0  0  0  0  0
   32.9834    2.0697    5.3148 H   0  0  0  0  0  0  0  0  0  0  0  0
   32.6109    1.3707    6.9509 H   0  0  0  0  0  0  0  0  0  0  0  0
   34.9210    1.0816    6.3857 H   0  0  0  0  0  0  0  0  0  0  0  0
   34.1438   -0.5145    6.5115 H   0  0  0  0  0  0  0  0  0  0  0  0
   30.2533    4.0704    6.3115 H   0  0  0  0  0  0  0  0  0  0  0  0
   29.3446    6.3679    5.9748 H   0  0  0  0  0  0  0  0  0  0  0  0
   26.9246    6.5782    5.5618 H   0  0  0  0  0  0  0  0  0  0  0  0
   25.4793    4.6341    5.4748 H   0  0  0  0  0  0  0  0  0  0  0  0
  1  2  2  0
  2  3  1  0
  3  4  1  0
  4  5  1  0
  5  6  1  0
  6  7  1  0
  7  8  1  0
  8  9  1  0
  9 10  1  0
 10 11  1  0
 10 12  1  0
  8 13  1  0
  2 14  1  0
 14 15  2  0
 15 16  1  0
 16 17  1  0
 17 18  1  0
 18 19  1  0
 19 20  1  0
 20 21  1  0
 21 22  1  0
 16 23  1  0
 23 24  2  0
 24 25  1  0
 25 26  2  0
 26 27  1  0
 27 28  2  0
 12  4  1  0
 28 14  1  0
 13  4  1  0
 28 23  1  0
 11  6  1  0
  3 29  1  0
  5 30  1  0
  5 31  1  0
  6 32  1  0
  7 33  1  0
  7 34  1  0
  8 35  1  0
  9 36  1  0
  9 37  1  0
 10 38  1  0
 11 39  1  0
 11 40  1  0
 12 41  1  0
 12 42  1  0
 13 43  1  0
 13 44  1  0
 17 45  1  0
 17 46  1  0
 18 47  1  0
 18 48  1  0
 19 49  1  0
 19 50  1  0
 20 51  1  0
 20 52  1  0
 21 53  1  0
 21 54  1  0
 24 55  1  0
 25 56  1  0
 26 57  1  0
 27 58  1  0
M  END
$$$$
