
     RDKit          3D

 45 48  0  0  0  0  0  0  0  0999 V2000
   23.6276    5.0882    9.4501 C   0  0  0  0  0  0  0  0  0  0  0  0
   23.8042    3.8515    8.7642 C   0  0  2  0  0  0  0  0  0  0  0  0
   22.5911    3.7178    7.8821 O   0  0  0  0  0  0  0  0  0  0  0  0
   23.6444    2.5150    9.5078 C   0  0  0  0  0  0  0  0  0  0  0  0
   24.8880    1.7716    9.0529 C   0  0  0  0  0  0  0  0  0  0  0  0
   25.8683    2.9712    8.7383 C   0  0  1  0  0  0  0  0  0  0  0  0
   27.0372    2.4512    8.0869 C   0  0  2  0  0  0  0  0  0  0  0  0
   28.0206    1.4849    8.4655 C   0  0  0  0  0  0  0  0  0  0  0  0
   28.9895    1.7621    9.5746 C   0  0  0  0  0  0  0  0  0  0  0  0
   29.7603    2.9430    9.0783 C   0  0  0  0  0  0  0  0  0  0  0  0
   31.0355    3.0044    9.4053 C   0  0  0  0  0  0  0  0  0  0  0  0
   31.7782    4.0846    8.9040 C   0  0  0  0  0  0  0  0  0  0  0  0
   32.9374    4.3343    9.3964 O   0  0  0  0  0  0  0  0  0  0  0  0
   31.1855    4.8965    7.7720 C   0  0  0  0  0  0  0  0  0  0  0  0
   29.7701    5.2332    8.1151 C   0  0  0  0  0  0  0  0  0  0  0  0
   29.0226    3.9295    8.3173 C   0  0  0  0  0  0  0  0  0  0  0  0
   27.7758    3.8383    7.8990 C   0  0  0  0  0  0  0  0  0  0  0  0
   26.9599    4.9286    7.4427 C   0  0  0  0  0  0  0  0  0  0  0  0
   25.6019    4.8629    7.3700 C   0  0  0  0  0  0  0  0  0  0  0  0
   24.8960    3.5959    7.7715 C   0  0  2  0  0  0  0  0  0  0  0  0
   24.6316    2.9443    6.5064 C   0  0  0  0  0  0  0  0  0  0  0  0
   22.7547    4.9400   10.1978 H   0  0  0  0  0  0  0  0  0  0  0  0
   24.4414    5.4997   10.0472 H   0  0  0  0  0  0  0  0  0  0  0  0
   23.1267    5.8919    8.7737 H   0  0  0  0  0  0  0  0  0  0  0  0
   22.5514    2.7388    7.6140 H   0  0  0  0  0  0  0  0  0  0  0  0
   23.8214    2.8319   10.5795 H   0  0  0  0  0  0  0  0  0  0  0  0
   22.7154    2.0362    9.3596 H   0  0  0  0  0  0  0  0  0  0  0  0
   24.6788    1.1734    8.1982 H   0  0  0  0  0  0  0  0  0  0  0  0
   25.3644    1.2207    9.9158 H   0  0  0  0  0  0  0  0  0  0  0  0
   25.9603    3.5802    9.6039 H   0  0  0  0  0  0  0  0  0  0  0  0
   26.7978    2.2461    7.0037 H   0  0  0  0  0  0  0  0  0  0  0  0
   27.4304    0.4884    8.7003 H   0  0  0  0  0  0  0  0  0  0  0  0
   28.6268    1.1759    7.5911 H   0  0  0  0  0  0  0  0  0  0  0  0
   29.6075    0.8940    9.7665 H   0  0  0  0  0  0  0  0  0  0  0  0
   28.5455    2.0793   10.5211 H   0  0  0  0  0  0  0  0  0  0  0  0
   31.4750    2.2215   10.0025 H   0  0  0  0  0  0  0  0  0  0  0  0
   31.3576    4.3702    6.8431 H   0  0  0  0  0  0  0  0  0  0  0  0
   31.7968    5.8480    7.7191 H   0  0  0  0  0  0  0  0  0  0  0  0
   29.3745    5.8485    7.3183 H   0  0  0  0  0  0  0  0  0  0  0  0
   29.7518    5.8042    9.1090 H   0  0  0  0  0  0  0  0  0  0  0  0
   27.4395    5.8527    7.2022 H   0  0  0  0  0  0  0  0  0  0  0  0
   25.0839    5.7388    7.0329 H   0  0  0  0  0  0  0  0  0  0  0  0
   23.7035    3.4023    6.0350 H   0  0  0  0  0  0  0  0  0  0  0  0
   25.4183    3.0790    5.7242 H   0  0  0  0  0  0  0  0  0  0  0  0
   24.3560    1.8542    6.5321 H   0  0  0  0  0  0  0  0  0  0  0  0
  1  2  1  0
  2  3  1  6
  2  4  1  0
  4  5  1  0
  5  6  1  0
  6  7  1  0
  7  8  1  0
  8  9  1  0
  9 10  1  0
 10 11  2  0
 11 12  1  0
 12 13  2  0
 12 14  1  0
 14 15  1  0
 15 16  1  0
 16 17  2  0
 17 18  1  0
 18 19  2  0
 19 20  1  0
 20 21  1  6
 20  2  1  0
 20  6  1  0
 17  7  1  0
 16 10  1  0
  1 22  1  0
  1 23  1  0
  1 24  1  0
  3 25  1  0
  4 26  1  0
  4 27  1  0
  5 28  1  0
  5 29  1  0
  6 30  1  1
  7 31  1  6
  8 32  1  0
  8 33  1  0
  9 34  1  0
  9 35  1  0
 11 36  1  0
 14 37  1  0
 14 38  1  0
 15 39  1  0
 15 40  1  0
 18 41  1  0
 19 42  1  0
 21 43  1  0
 21 44  1  0
 21 45  1  0
M  END
$$$$
