
     RDKit          3D

 45 48  0  0  0  0  0  0  0  0999 V2000
   24.2474    4.6050    9.5376 C   0  0  0  0  0  0  0  0  0  0  0  0
   23.9874    3.5461    8.5556 C   0  0  2  0  0  0  0  0  0  0  0  0
   22.9318    3.8373    7.6794 O   0  0  0  0  0  0  0  0  0  0  0  0
   23.6918    2.1520    9.0809 C   0  0  0  0  0  0  0  0  0  0  0  0
   25.0177    1.4306    9.1004 C   0  0  0  0  0  0  0  0  0  0  0  0
   26.0095    2.5280    8.8058 C   0  0  1  0  0  0  0  0  0  0  0  0
   27.4082    2.2199    8.6474 C   0  0  2  0  0  0  0  0  0  0  0  0
   28.0541    1.5997    9.8992 C   0  0  0  0  0  0  0  0  0  0  0  0
   29.4712    1.3238    9.4439 C   0  0  0  0  0  0  0  0  0  0  0  0
   30.1191    2.5609    9.0126 C   0  0  0  0  0  0  0  0  0  0  0  0
   31.4686    2.5990    9.0808 C   0  0  0  0  0  0  0  0  0  0  0  0
   32.1648    3.8069    8.6140 C   0  0  0  0  0  0  0  0  0  0  0  0
   33.3576    4.0495    8.9145 O   0  0  0  0  0  0  0  0  0  0  0  0
   31.3352    4.6998    7.7528 C   0  0  0  0  0  0  0  0  0  0  0  0
   30.0716    5.0315    8.4039 C   0  0  0  0  0  0  0  0  0  0  0  0
   29.3433    3.7390    8.6228 C   0  0  0  0  0  0  0  0  0  0  0  0
   28.0655    3.5701    8.3940 C   0  0  0  0  0  0  0  0  0  0  0  0
   27.3084    4.6460    7.8096 C   0  0  0  0  0  0  0  0  0  0  0  0
   26.0114    4.5073    7.4845 C   0  0  0  0  0  0  0  0  0  0  0  0
   25.2628    3.2032    7.7122 C   0  0  2  0  0  0  0  0  0  0  0  0
   24.8981    2.4654    6.5344 C   0  0  0  0  0  0  0  0  0  0  0  0
   25.1261    5.1996    9.2114 H   0  0  0  0  0  0  0  0  0  0  0  0
   24.2602    4.1931   10.5485 H   0  0  0  0  0  0  0  0  0  0  0  0
   23.3366    5.2989    9.5745 H   0  0  0  0  0  0  0  0  0  0  0  0
   22.1295    3.3053    7.8813 H   0  0  0  0  0  0  0  0  0  0  0  0
   23.1955    2.2304   10.0551 H   0  0  0  0  0  0  0  0  0  0  0  0
   23.0273    1.6580    8.3477 H   0  0  0  0  0  0  0  0  0  0  0  0
   25.0869    0.5329    8.4905 H   0  0  0  0  0  0  0  0  0  0  0  0
   25.2135    1.0864   10.1608 H   0  0  0  0  0  0  0  0  0  0  0  0
   25.9356    3.2454    9.7143 H   0  0  0  0  0  0  0  0  0  0  0  0
   27.6945    1.5647    7.8504 H   0  0  0  0  0  0  0  0  0  0  0  0
   27.4954    0.6740   10.1344 H   0  0  0  0  0  0  0  0  0  0  0  0
   28.0934    2.3732   10.7176 H   0  0  0  0  0  0  0  0  0  0  0  0
   29.3171    0.6538    8.5411 H   0  0  0  0  0  0  0  0  0  0  0  0
   30.0753    0.7591   10.1845 H   0  0  0  0  0  0  0  0  0  0  0  0
   32.0304    1.7508    9.4305 H   0  0  0  0  0  0  0  0  0  0  0  0
   31.9571    5.6134    7.5758 H   0  0  0  0  0  0  0  0  0  0  0  0
   31.1764    4.1800    6.7985 H   0  0  0  0  0  0  0  0  0  0  0  0
   29.4576    5.8473    8.0573 H   0  0  0  0  0  0  0  0  0  0  0  0
   30.3810    5.2954    9.4791 H   0  0  0  0  0  0  0  0  0  0  0  0
   27.7349    5.5926    7.5990 H   0  0  0  0  0  0  0  0  0  0  0  0
   25.4387    5.3250    7.0555 H   0  0  0  0  0  0  0  0  0  0  0  0
   23.8106    2.1326    6.4327 H   0  0  0  0  0  0  0  0  0  0  0  0
   25.0426    3.0724    5.5858 H   0  0  0  0  0  0  0  0  0  0  0  0
   25.4534    1.5046    6.3640 H   0  0  0  0  0  0  0  0  0  0  0  0
  1  2  1  0
  2  3  1  6
  2  4  1  0
  4  5  1  0
  5  6  1  0
  6  7  1  0
  7  8  1  0
  8  9  1  0
  9 10  1  0
 10 11  2  0
 11 12  1  0
 12 13  2  0
 12 14  1  0
 14 15  1  0
 15 16  1  0
 16 17  2  0
 17 18  1  0
 18 19  2  0
 19 20  1  0
 20 21  1  6
 20  2  1  0
 20  6  1  0
 17  7  1  0
 16 10  1  0
  1 22  1  0
  1 23  1  0
  1 24  1  0
  3 25  1  0
  4 26  1  0
  4 27  1  0
  5 28  1  0
  5 29  1  0
  6 30  1  1
  7 31  1  6
  8 32  1  0
  8 33  1  0
  9 34  1  0
  9 35  1  0
 11 36  1  0
 14 37  1  0
 14 38  1  0
 15 39  1  0
 15 40  1  0
 18 41  1  0
 19 42  1  0
 21 43  1  0
 21 44  1  0
 21 45  1  0
M  END
$$$$
