
     RDKit          3D

 45 48  0  0  0  0  0  0  0  0999 V2000
   23.3480    4.8581    8.7304 C   0  0  0  0  0  0  0  0  0  0  0  0
   23.9673    3.5997    8.4284 C   0  0  2  0  0  0  0  0  0  0  0  0
   23.1658    3.0593    7.2877 O   0  0  0  0  0  0  0  0  0  0  0  0
   23.7641    2.4185    9.4150 C   0  0  0  0  0  0  0  0  0  0  0  0
   25.1044    1.6584    9.2181 C   0  0  0  0  0  0  0  0  0  0  0  0
   26.0428    2.8550    9.0404 C   0  0  1  0  0  0  0  0  0  0  0  0
   27.3997    2.4232    8.5276 C   0  0  2  0  0  0  0  0  0  0  0  0
   28.1586    1.4684    9.3304 C   0  0  0  0  0  0  0  0  0  0  0  0
   29.4781    1.1846    8.5744 C   0  0  0  0  0  0  0  0  0  0  0  0
   30.1560    2.4850    8.3929 C   0  0  0  0  0  0  0  0  0  0  0  0
   31.4707    2.5882    8.6497 C   0  0  0  0  0  0  0  0  0  0  0  0
   32.2327    3.8037    8.5455 C   0  0  0  0  0  0  0  0  0  0  0  0
   33.2234    4.0411    9.0817 O   0  0  0  0  0  0  0  0  0  0  0  0
   31.5313    4.7508    7.5390 C   0  0  0  0  0  0  0  0  0  0  0  0
   30.1164    4.9930    7.8901 C   0  0  0  0  0  0  0  0  0  0  0  0
   29.3810    3.7224    8.1496 C   0  0  0  0  0  0  0  0  0  0  0  0
   28.0980    3.6883    8.2224 C   0  0  0  0  0  0  0  0  0  0  0  0
   27.3057    4.9414    8.1223 C   0  0  0  0  0  0  0  0  0  0  0  0
   26.0112    4.8596    7.9813 C   0  0  0  0  0  0  0  0  0  0  0  0
   25.3115    3.4526    7.9034 C   0  0  2  0  0  0  0  0  0  0  0  0
   25.5542    2.9438    6.5686 C   0  0  0  0  0  0  0  0  0  0  0  0
   23.8175    5.3856    9.6001 H   0  0  0  0  0  0  0  0  0  0  0  0
   22.2652    4.6800    8.9989 H   0  0  0  0  0  0  0  0  0  0  0  0
   23.3133    5.4965    7.8143 H   0  0  0  0  0  0  0  0  0  0  0  0
   23.1614    2.0844    7.2935 H   0  0  0  0  0  0  0  0  0  0  0  0
   23.8206    2.9968   10.4157 H   0  0  0  0  0  0  0  0  0  0  0  0
   22.8928    1.8618    9.3065 H   0  0  0  0  0  0  0  0  0  0  0  0
   25.2832    1.1016   10.1583 H   0  0  0  0  0  0  0  0  0  0  0  0
   24.9765    1.0770    8.3476 H   0  0  0  0  0  0  0  0  0  0  0  0
   26.1591    3.4301    9.9303 H   0  0  0  0  0  0  0  0  0  0  0  0
   27.2285    1.9214    7.5055 H   0  0  0  0  0  0  0  0  0  0  0  0
   27.6348    0.4975    9.3425 H   0  0  0  0  0  0  0  0  0  0  0  0
   28.4097    1.8559   10.3362 H   0  0  0  0  0  0  0  0  0  0  0  0
   30.0700    0.4770    9.1720 H   0  0  0  0  0  0  0  0  0  0  0  0
   29.2410    0.7641    7.5799 H   0  0  0  0  0  0  0  0  0  0  0  0
   31.9971    1.6408    8.8779 H   0  0  0  0  0  0  0  0  0  0  0  0
   31.8671    4.5129    6.5740 H   0  0  0  0  0  0  0  0  0  0  0  0
   32.0926    5.7529    7.8213 H   0  0  0  0  0  0  0  0  0  0  0  0
   29.8511    5.9024    8.3121 H   0  0  0  0  0  0  0  0  0  0  0  0
   29.6926    5.0937    6.7031 H   0  0  0  0  0  0  0  0  0  0  0  0
   27.7939    5.8977    8.0542 H   0  0  0  0  0  0  0  0  0  0  0  0
   25.4044    5.7416    8.1439 H   0  0  0  0  0  0  0  0  0  0  0  0
   24.7740    3.3748    5.8891 H   0  0  0  0  0  0  0  0  0  0  0  0
   26.5374    3.2629    6.1048 H   0  0  0  0  0  0  0  0  0  0  0  0
   25.4352    1.8255    6.5104 H   0  0  0  0  0  0  0  0  0  0  0  0
  1  2  1  0
  2  3  1  6
  2  4  1  0
  4  5  1  0
  5  6  1  0
  6  7  1  0
  7  8  1  0
  8  9  1  0
  9 10  1  0
 10 11  2  0
 11 12  1  0
 12 13  2  0
 12 14  1  0
 14 15  1  0
 15 16  1  0
 16 17  2  0
 17 18  1  0
 18 19  2  0
 19 20  1  0
 20 21  1  6
 20  2  1  0
 20  6  1  0
 17  7  1  0
 16 10  1  0
  1 22  1  0
  1 23  1  0
  1 24  1  0
  3 25  1  0
  4 26  1  0
  4 27  1  0
  5 28  1  0
  5 29  1  0
  6 30  1  1
  7 31  1  6
  8 32  1  0
  8 33  1  0
  9 34  1  0
  9 35  1  0
 11 36  1  0
 14 37  1  0
 14 38  1  0
 15 39  1  0
 15 40  1  0
 18 41  1  0
 19 42  1  0
 21 43  1  0
 21 44  1  0
 21 45  1  0
M  END
$$$$
