
     RDKit          3D

 45 48  0  0  0  0  0  0  0  0999 V2000
   23.5713    4.4981    9.6436 C   0  0  0  0  0  0  0  0  0  0  0  0
   23.7582    3.5382    8.5457 C   0  0  2  0  0  0  0  0  0  0  0  0
   22.6544    3.5695    7.6386 O   0  0  0  0  0  0  0  0  0  0  0  0
   23.6165    2.0923    9.1211 C   0  0  0  0  0  0  0  0  0  0  0  0
   24.9324    1.4855    8.9397 C   0  0  0  0  0  0  0  0  0  0  0  0
   25.8761    2.8531    8.7286 C   0  0  1  0  0  0  0  0  0  0  0  0
   27.0876    2.2701    8.1986 C   0  0  2  0  0  0  0  0  0  0  0  0
   27.9783    1.3745    8.8598 C   0  0  0  0  0  0  0  0  0  0  0  0
   28.7586    1.8687    9.9659 C   0  0  0  0  0  0  0  0  0  0  0  0
   29.6742    2.8752    9.1432 C   0  0  0  0  0  0  0  0  0  0  0  0
   30.9881    2.6561    9.2610 C   0  0  0  0  0  0  0  0  0  0  0  0
   31.7797    3.5736    8.4447 C   0  0  0  0  0  0  0  0  0  0  0  0
   33.0090    3.5762    8.6625 O   0  0  0  0  0  0  0  0  0  0  0  0
   31.1082    4.4191    7.4410 C   0  0  0  0  0  0  0  0  0  0  0  0
   29.8137    5.1306    7.9812 C   0  0  0  0  0  0  0  0  0  0  0  0
   29.0275    3.8230    8.2470 C   0  0  0  0  0  0  0  0  0  0  0  0
   27.7824    3.6782    7.9168 C   0  0  0  0  0  0  0  0  0  0  0  0
   27.0379    4.8633    7.5908 C   0  0  0  0  0  0  0  0  0  0  0  0
   25.6018    4.7988    7.5204 C   0  0  0  0  0  0  0  0  0  0  0  0
   24.9395    3.4736    7.7211 C   0  0  2  0  0  0  0  0  0  0  0  0
   24.8577    2.8868    6.3828 C   0  0  0  0  0  0  0  0  0  0  0  0
   24.2324    4.2397   10.5121 H   0  0  0  0  0  0  0  0  0  0  0  0
   22.4792    4.4287    9.9742 H   0  0  0  0  0  0  0  0  0  0  0  0
   23.7829    5.5509    9.2720 H   0  0  0  0  0  0  0  0  0  0  0  0
   22.5797    2.6556    7.2552 H   0  0  0  0  0  0  0  0  0  0  0  0
   22.9234    1.5036    8.4563 H   0  0  0  0  0  0  0  0  0  0  0  0
   23.2497    2.0566   10.1244 H   0  0  0  0  0  0  0  0  0  0  0  0
   25.3960    1.2679    9.9844 H   0  0  0  0  0  0  0  0  0  0  0  0
   25.2588    0.7070    8.3362 H   0  0  0  0  0  0  0  0  0  0  0  0
   25.8952    3.3449    9.6603 H   0  0  0  0  0  0  0  0  0  0  0  0
   26.8851    1.8947    7.1955 H   0  0  0  0  0  0  0  0  0  0  0  0
   27.2687    0.5748    9.4048 H   0  0  0  0  0  0  0  0  0  0  0  0
   28.5047    0.6687    8.2207 H   0  0  0  0  0  0  0  0  0  0  0  0
   28.0986    2.6287   10.5831 H   0  0  0  0  0  0  0  0  0  0  0  0
   29.3123    1.2055   10.5317 H   0  0  0  0  0  0  0  0  0  0  0  0
   31.4288    1.9027    9.9009 H   0  0  0  0  0  0  0  0  0  0  0  0
   31.8212    5.2369    7.0780 H   0  0  0  0  0  0  0  0  0  0  0  0
   30.7637    3.8456    6.5221 H   0  0  0  0  0  0  0  0  0  0  0  0
   29.4853    5.6690    7.1276 H   0  0  0  0  0  0  0  0  0  0  0  0
   30.0509    5.5784    8.9118 H   0  0  0  0  0  0  0  0  0  0  0  0
   27.4766    5.8044    7.4898 H   0  0  0  0  0  0  0  0  0  0  0  0
   25.0769    5.6715    7.3490 H   0  0  0  0  0  0  0  0  0  0  0  0
   24.9994    1.8382    6.2093 H   0  0  0  0  0  0  0  0  0  0  0  0
   25.6976    3.4109    5.7203 H   0  0  0  0  0  0  0  0  0  0  0  0
   23.9350    3.2805    5.9024 H   0  0  0  0  0  0  0  0  0  0  0  0
  1  2  1  0
  2  3  1  6
  2  4  1  0
  4  5  1  0
  5  6  1  0
  6  7  1  0
  7  8  1  0
  8  9  1  0
  9 10  1  0
 10 11  2  0
 11 12  1  0
 12 13  2  0
 12 14  1  0
 14 15  1  0
 15 16  1  0
 16 17  2  0
 17 18  1  0
 18 19  2  0
 19 20  1  0
 20 21  1  6
 20  2  1  0
 20  6  1  0
 17  7  1  0
 16 10  1  0
  1 22  1  0
  1 23  1  0
  1 24  1  0
  3 25  1  0
  4 26  1  0
  4 27  1  0
  5 28  1  0
  5 29  1  0
  6 30  1  1
  7 31  1  6
  8 32  1  0
  8 33  1  0
  9 34  1  0
  9 35  1  0
 11 36  1  0
 14 37  1  0
 14 38  1  0
 15 39  1  0
 15 40  1  0
 18 41  1  0
 19 42  1  0
 21 43  1  0
 21 44  1  0
 21 45  1  0
M  END
$$$$
