
     RDKit          3D

 45 48  0  0  0  0  0  0  0  0999 V2000
   23.7136    4.7876    9.0673 C   0  0  0  0  0  0  0  0  0  0  0  0
   24.0034    3.4314    8.6053 C   0  0  2  0  0  0  0  0  0  0  0  0
   22.9430    3.2817    7.5188 O   0  0  0  0  0  0  0  0  0  0  0  0
   23.7659    2.2245    9.3876 C   0  0  0  0  0  0  0  0  0  0  0  0
   25.0977    1.4912    9.2226 C   0  0  0  0  0  0  0  0  0  0  0  0
   26.0522    2.6654    8.9859 C   0  0  1  0  0  0  0  0  0  0  0  0
   27.4082    2.2533    8.6028 C   0  0  2  0  0  0  0  0  0  0  0  0
   28.1436    1.4272    9.5337 C   0  0  0  0  0  0  0  0  0  0  0  0
   29.5050    1.1420    8.8747 C   0  0  0  0  0  0  0  0  0  0  0  0
   30.1925    2.4325    8.6446 C   0  0  0  0  0  0  0  0  0  0  0  0
   31.4922    2.4456    8.4424 C   0  0  0  0  0  0  0  0  0  0  0  0
   32.1821    3.7462    8.2684 C   0  0  0  0  0  0  0  0  0  0  0  0
   33.3082    3.8235    7.7463 O   0  0  0  0  0  0  0  0  0  0  0  0
   31.4243    4.9631    8.7629 C   0  0  0  0  0  0  0  0  0  0  0  0
   30.0908    4.9794    8.0850 C   0  0  0  0  0  0  0  0  0  0  0  0
   29.4185    3.6404    8.3877 C   0  0  0  0  0  0  0  0  0  0  0  0
   28.1140    3.6034    8.2942 C   0  0  0  0  0  0  0  0  0  0  0  0
   27.2245    4.6866    7.8098 C   0  0  0  0  0  0  0  0  0  0  0  0
   25.9468    4.5353    7.5553 C   0  0  0  0  0  0  0  0  0  0  0  0
   25.2555    3.1813    7.7588 C   0  0  2  0  0  0  0  0  0  0  0  0
   25.0854    2.4607    6.5841 C   0  0  0  0  0  0  0  0  0  0  0  0
   24.4755    5.5226    9.2448 H   0  0  0  0  0  0  0  0  0  0  0  0
   23.1880    5.3314    8.1431 H   0  0  0  0  0  0  0  0  0  0  0  0
   22.8282    4.8274    9.7809 H   0  0  0  0  0  0  0  0  0  0  0  0
   22.1795    3.0590    8.0923 H   0  0  0  0  0  0  0  0  0  0  0  0
   23.8295    2.5348   10.5119 H   0  0  0  0  0  0  0  0  0  0  0  0
   22.8804    1.6029    9.2471 H   0  0  0  0  0  0  0  0  0  0  0  0
   25.3694    0.9125   10.1811 H   0  0  0  0  0  0  0  0  0  0  0  0
   25.0980    0.8156    8.3975 H   0  0  0  0  0  0  0  0  0  0  0  0
   25.9717    3.4058    9.7681 H   0  0  0  0  0  0  0  0  0  0  0  0
   27.5083    1.7500    7.5681 H   0  0  0  0  0  0  0  0  0  0  0  0
   28.3649    1.9176   10.5473 H   0  0  0  0  0  0  0  0  0  0  0  0
   27.5905    0.5217    9.7571 H   0  0  0  0  0  0  0  0  0  0  0  0
   29.2770    0.7081    7.8548 H   0  0  0  0  0  0  0  0  0  0  0  0
   30.0802    0.4814    9.5157 H   0  0  0  0  0  0  0  0  0  0  0  0
   32.0016    1.5178    8.4032 H   0  0  0  0  0  0  0  0  0  0  0  0
   31.9807    5.8991    8.6494 H   0  0  0  0  0  0  0  0  0  0  0  0
   31.2898    4.7983    9.8728 H   0  0  0  0  0  0  0  0  0  0  0  0
   30.1680    5.1863    7.0290 H   0  0  0  0  0  0  0  0  0  0  0  0
   29.5215    5.8245    8.5880 H   0  0  0  0  0  0  0  0  0  0  0  0
   27.7471    5.6146    7.6905 H   0  0  0  0  0  0  0  0  0  0  0  0
   25.3635    5.3625    7.1954 H   0  0  0  0  0  0  0  0  0  0  0  0
   25.8663    2.8051    5.7563 H   0  0  0  0  0  0  0  0  0  0  0  0
   25.2102    1.3476    6.5520 H   0  0  0  0  0  0  0  0  0  0  0  0
   24.1329    2.7113    6.0720 H   0  0  0  0  0  0  0  0  0  0  0  0
  1  2  1  0
  2  3  1  6
  2  4  1  0
  4  5  1  0
  5  6  1  0
  6  7  1  0
  7  8  1  0
  8  9  1  0
  9 10  1  0
 10 11  2  0
 11 12  1  0
 12 13  2  0
 12 14  1  0
 14 15  1  0
 15 16  1  0
 16 17  2  0
 17 18  1  0
 18 19  2  0
 19 20  1  0
 20 21  1  6
 20  2  1  0
 20  6  1  0
 17  7  1  0
 16 10  1  0
  1 22  1  0
  1 23  1  0
  1 24  1  0
  3 25  1  0
  4 26  1  0
  4 27  1  0
  5 28  1  0
  5 29  1  0
  6 30  1  1
  7 31  1  6
  8 32  1  0
  8 33  1  0
  9 34  1  0
  9 35  1  0
 11 36  1  0
 14 37  1  0
 14 38  1  0
 15 39  1  0
 15 40  1  0
 18 41  1  0
 19 42  1  0
 21 43  1  0
 21 44  1  0
 21 45  1  0
M  END
$$$$
