
     RDKit          3D

 49 52  0  0  0  0  0  0  0  0999 V2000
   30.0770    1.6847    4.4310 C   0  0  0  0  0  0  0  0  0  0  0  0
   29.4954    2.1540    5.7578 C   0  0  2  0  0  0  0  0  0  0  0  0
   28.7894    1.1176    6.4953 C   0  0  0  0  0  0  0  0  0  0  0  0
   27.4296    0.9874    5.7415 C   0  0  0  0  0  0  0  0  0  0  0  0
   26.6518    2.2916    5.7137 C   0  0  1  0  0  0  0  0  0  0  0  0
   27.5606    3.2730    5.0248 C   0  0  1  0  0  0  0  0  0  0  0  0
   26.8860    4.6210    4.7333 C   0  0  0  0  0  0  0  0  0  0  0  0
   25.6637    4.3021    3.8085 C   0  0  0  0  0  0  0  0  0  0  0  0
   24.8208    3.3772    4.7395 C   0  0  0  0  0  0  0  0  0  0  0  0
   23.8386    3.8594    5.3447 C   0  0  0  0  0  0  0  0  0  0  0  0
   23.0649    3.0121    6.2507 C   0  0  0  0  0  0  0  0  0  0  0  0
   21.8809    3.2038    6.5700 O   0  0  0  0  0  0  0  0  0  0  0  0
   23.8611    1.7949    6.7752 C   0  0  0  0  0  0  0  0  0  0  0  0
   24.4117    1.1248    5.5723 C   0  0  0  0  0  0  0  0  0  0  0  0
   25.4758    1.9898    4.8896 C   0  0  2  0  0  0  0  0  0  0  0  0
   25.7222    1.3839    3.5754 C   0  0  0  0  0  0  0  0  0  0  0  0
   28.8144    3.4808    5.7024 C   0  0  2  0  0  0  0  0  0  0  0  0
   29.8921    4.1820    4.9052 C   0  0  0  0  0  0  0  0  0  0  0  0
   31.1757    3.8637    5.7703 C   0  0  0  0  0  0  0  0  0  0  0  0
   30.7104    2.6371    6.6024 C   0  0  2  0  0  0  0  0  0  0  0  0
   31.6771    1.6989    6.4704 O   0  0  0  0  0  0  0  0  0  0  0  0
   29.9759    2.3420    3.6107 H   0  0  0  0  0  0  0  0  0  0  0  0
   31.1428    1.4438    4.5917 H   0  0  0  0  0  0  0  0  0  0  0  0
   29.5821    0.6796    4.2061 H   0  0  0  0  0  0  0  0  0  0  0  0
   29.3350    0.1076    6.2230 H   0  0  0  0  0  0  0  0  0  0  0  0
   28.7662    1.2020    7.5653 H   0  0  0  0  0  0  0  0  0  0  0  0
   26.8818    0.1238    6.1541 H   0  0  0  0  0  0  0  0  0  0  0  0
   27.7096    0.8043    4.7020 H   0  0  0  0  0  0  0  0  0  0  0  0
   26.3955    2.5554    6.6962 H   0  0  0  0  0  0  0  0  0  0  0  0
   27.7052    2.8475    4.0148 H   0  0  0  0  0  0  0  0  0  0  0  0
   26.5559    5.1490    5.6346 H   0  0  0  0  0  0  0  0  0  0  0  0
   27.6242    5.1949    4.1032 H   0  0  0  0  0  0  0  0  0  0  0  0
   25.1085    5.1653    3.5333 H   0  0  0  0  0  0  0  0  0  0  0  0
   26.0621    3.6979    3.0058 H   0  0  0  0  0  0  0  0  0  0  0  0
   23.5508    4.9379    5.1505 H   0  0  0  0  0  0  0  0  0  0  0  0
   24.6014    2.2414    7.4656 H   0  0  0  0  0  0  0  0  0  0  0  0
   23.0807    1.1131    7.2913 H   0  0  0  0  0  0  0  0  0  0  0  0
   24.8982    0.1876    5.9322 H   0  0  0  0  0  0  0  0  0  0  0  0
   23.5672    0.8496    4.8888 H   0  0  0  0  0  0  0  0  0  0  0  0
   26.3823    1.8244    2.8960 H   0  0  0  0  0  0  0  0  0  0  0  0
   25.9725    0.2651    3.6736 H   0  0  0  0  0  0  0  0  0  0  0  0
   24.6860    1.3011    3.0258 H   0  0  0  0  0  0  0  0  0  0  0  0
   28.7853    3.9296    6.6720 H   0  0  0  0  0  0  0  0  0  0  0  0
   29.9273    4.1051    3.8695 H   0  0  0  0  0  0  0  0  0  0  0  0
   29.6348    5.3010    5.0891 H   0  0  0  0  0  0  0  0  0  0  0  0
   32.0846    3.6849    5.1871 H   0  0  0  0  0  0  0  0  0  0  0  0
   31.1599    4.7587    6.5107 H   0  0  0  0  0  0  0  0  0  0  0  0
   30.3974    2.9627    7.5713 H   0  0  0  0  0  0  0  0  0  0  0  0
   32.4905    1.9971    5.9711 H   0  0  0  0  0  0  0  0  0  0  0  0
  2  1  1  6
  2  3  1  0
  3  4  1  0
  4  5  1  0
  5  6  1  0
  6  7  1  0
  7  8  1  0
  8  9  1  0
  9 10  2  0
 10 11  1  0
 11 12  2  0
 11 13  1  0
 13 14  1  0
 14 15  1  0
 15 16  1  6
  6 17  1  0
 17 18  1  0
 18 19  1  0
 19 20  1  0
 20 21  1  0
 17  2  1  0
 20  2  1  0
 15  5  1  0
 15  9  1  0
  1 22  1  0
  1 23  1  0
  1 24  1  0
  3 25  1  0
  3 26  1  0
  4 27  1  0
  4 28  1  0
  5 29  1  1
  6 30  1  6
  7 31  1  0
  7 32  1  0
  8 33  1  0
  8 34  1  0
 10 35  1  0
 13 36  1  0
 13 37  1  0
 14 38  1  0
 14 39  1  0
 16 40  1  0
 16 41  1  0
 16 42  1  0
 17 43  1  1
 18 44  1  0
 18 45  1  0
 19 46  1  0
 19 47  1  0
 20 48  1  1
 21 49  1  0
M  END
$$$$
