
     RDKit          3D

 49 52  0  0  0  0  0  0  0  0999 V2000
   30.6077    1.6188    4.3233 C   0  0  0  0  0  0  0  0  0  0  0  0
   30.0090    2.0832    5.5890 C   0  0  2  0  0  0  0  0  0  0  0  0
   29.2536    1.0516    6.3298 C   0  0  0  0  0  0  0  0  0  0  0  0
   27.8829    0.9145    5.6590 C   0  0  0  0  0  0  0  0  0  0  0  0
   27.1615    2.2458    5.7113 C   0  0  1  0  0  0  0  0  0  0  0  0
   27.9997    3.2314    4.8695 C   0  0  1  0  0  0  0  0  0  0  0  0
   27.2145    4.5751    4.9057 C   0  0  0  0  0  0  0  0  0  0  0  0
   25.9023    4.3912    4.2078 C   0  0  0  0  0  0  0  0  0  0  0  0
   25.0781    3.3206    4.8643 C   0  0  0  0  0  0  0  0  0  0  0  0
   23.8296    3.5751    5.0911 C   0  0  0  0  0  0  0  0  0  0  0  0
   22.9733    2.5953    5.7006 C   0  0  0  0  0  0  0  0  0  0  0  0
   21.8393    2.8879    6.0441 O   0  0  0  0  0  0  0  0  0  0  0  0
   23.5893    1.2074    5.8636 C   0  0  0  0  0  0  0  0  0  0  0  0
   25.0093    1.3506    6.2593 C   0  0  0  0  0  0  0  0  0  0  0  0
   25.8060    2.0822    5.0774 C   0  0  2  0  0  0  0  0  0  0  0  0
   25.6878    1.1673    3.9070 C   0  0  0  0  0  0  0  0  0  0  0  0
   29.3192    3.4237    5.5349 C   0  0  2  0  0  0  0  0  0  0  0  0
   30.3917    4.1045    4.7015 C   0  0  0  0  0  0  0  0  0  0  0  0
   31.6195    3.7899    5.5744 C   0  0  0  0  0  0  0  0  0  0  0  0
   31.1637    2.6379    6.4766 C   0  0  2  0  0  0  0  0  0  0  0  0
   32.1607    1.7375    6.6650 O   0  0  0  0  0  0  0  0  0  0  0  0
   30.7494    0.5089    4.3617 H   0  0  0  0  0  0  0  0  0  0  0  0
   31.6228    2.1063    4.1295 H   0  0  0  0  0  0  0  0  0  0  0  0
   30.0211    1.8524    3.3840 H   0  0  0  0  0  0  0  0  0  0  0  0
   29.1953    1.2775    7.3810 H   0  0  0  0  0  0  0  0  0  0  0  0
   29.7505    0.0658    6.2098 H   0  0  0  0  0  0  0  0  0  0  0  0
   27.9215    0.5089    4.6699 H   0  0  0  0  0  0  0  0  0  0  0  0
   27.2899    0.2498    6.3675 H   0  0  0  0  0  0  0  0  0  0  0  0
   27.1620    2.6001    6.7066 H   0  0  0  0  0  0  0  0  0  0  0  0
   27.9905    2.8792    3.8589 H   0  0  0  0  0  0  0  0  0  0  0  0
   27.1426    4.9597    5.9263 H   0  0  0  0  0  0  0  0  0  0  0  0
   27.7974    5.2582    4.2543 H   0  0  0  0  0  0  0  0  0  0  0  0
   25.3545    5.3413    4.1066 H   0  0  0  0  0  0  0  0  0  0  0  0
   26.1844    4.0511    3.1461 H   0  0  0  0  0  0  0  0  0  0  0  0
   23.4454    4.5766    4.7802 H   0  0  0  0  0  0  0  0  0  0  0  0
   23.0819    0.8102    6.7959 H   0  0  0  0  0  0  0  0  0  0  0  0
   23.4347    0.5296    5.0727 H   0  0  0  0  0  0  0  0  0  0  0  0
   25.1162    2.0630    7.0866 H   0  0  0  0  0  0  0  0  0  0  0  0
   25.4924    0.4254    6.5522 H   0  0  0  0  0  0  0  0  0  0  0  0
   24.6315    1.0873    3.5319 H   0  0  0  0  0  0  0  0  0  0  0  0
   25.9301    0.1113    4.1656 H   0  0  0  0  0  0  0  0  0  0  0  0
   26.2853    1.5811    3.0844 H   0  0  0  0  0  0  0  0  0  0  0  0
   29.2761    3.9399    6.4394 H   0  0  0  0  0  0  0  0  0  0  0  0
   30.5288    3.8701    3.6846 H   0  0  0  0  0  0  0  0  0  0  0  0
   30.1830    5.2224    4.7617 H   0  0  0  0  0  0  0  0  0  0  0  0
   32.5323    3.5419    5.0561 H   0  0  0  0  0  0  0  0  0  0  0  0
   31.7232    4.6447    6.2971 H   0  0  0  0  0  0  0  0  0  0  0  0
   30.6897    2.9952    7.3844 H   0  0  0  0  0  0  0  0  0  0  0  0
   32.3673    1.1568    5.8930 H   0  0  0  0  0  0  0  0  0  0  0  0
  2  1  1  6
  2  3  1  0
  3  4  1  0
  4  5  1  0
  5  6  1  0
  6  7  1  0
  7  8  1  0
  8  9  1  0
  9 10  2  0
 10 11  1  0
 11 12  2  0
 11 13  1  0
 13 14  1  0
 14 15  1  0
 15 16  1  6
  6 17  1  0
 17 18  1  0
 18 19  1  0
 19 20  1  0
 20 21  1  0
 17  2  1  0
 20  2  1  0
 15  5  1  0
 15  9  1  0
  1 22  1  0
  1 23  1  0
  1 24  1  0
  3 25  1  0
  3 26  1  0
  4 27  1  0
  4 28  1  0
  5 29  1  1
  6 30  1  6
  7 31  1  0
  7 32  1  0
  8 33  1  0
  8 34  1  0
 10 35  1  0
 13 36  1  0
 13 37  1  0
 14 38  1  0
 14 39  1  0
 16 40  1  0
 16 41  1  0
 16 42  1  0
 17 43  1  1
 18 44  1  0
 18 45  1  0
 19 46  1  0
 19 47  1  0
 20 48  1  1
 21 49  1  0
M  END
$$$$
