
     RDKit          3D

 49 52  0  0  0  0  0  0  0  0999 V2000
   30.2354    1.5147    4.2315 C   0  0  0  0  0  0  0  0  0  0  0  0
   29.8328    2.0892    5.5736 C   0  0  2  0  0  0  0  0  0  0  0  0
   29.0408    1.0514    6.3144 C   0  0  0  0  0  0  0  0  0  0  0  0
   27.7052    0.9179    5.6863 C   0  0  0  0  0  0  0  0  0  0  0  0
   26.9762    2.2846    5.6890 C   0  0  1  0  0  0  0  0  0  0  0  0
   27.8500    3.2347    4.8600 C   0  0  1  0  0  0  0  0  0  0  0  0
   27.0986    4.5891    4.8330 C   0  0  0  0  0  0  0  0  0  0  0  0
   25.8022    4.3919    4.1173 C   0  0  0  0  0  0  0  0  0  0  0  0
   24.9457    3.3634    4.7240 C   0  0  0  0  0  0  0  0  0  0  0  0
   23.6647    3.5844    4.8970 C   0  0  0  0  0  0  0  0  0  0  0  0
   22.8377    2.5524    5.4693 C   0  0  0  0  0  0  0  0  0  0  0  0
   21.6290    2.8344    5.8436 O   0  0  0  0  0  0  0  0  0  0  0  0
   23.3882    1.1628    5.6127 C   0  0  0  0  0  0  0  0  0  0  0  0
   24.8387    1.3398    6.0889 C   0  0  0  0  0  0  0  0  0  0  0  0
   25.6463    2.1001    5.0040 C   0  0  2  0  0  0  0  0  0  0  0  0
   25.6651    1.1444    3.8587 C   0  0  0  0  0  0  0  0  0  0  0  0
   29.1725    3.4180    5.5331 C   0  0  2  0  0  0  0  0  0  0  0  0
   30.2211    4.0779    4.6340 C   0  0  0  0  0  0  0  0  0  0  0  0
   31.5011    3.7912    5.3528 C   0  0  0  0  0  0  0  0  0  0  0  0
   31.0928    2.5904    6.3064 C   0  0  2  0  0  0  0  0  0  0  0  0
   32.0555    1.5793    6.0766 O   0  0  0  0  0  0  0  0  0  0  0  0
   31.3058    1.2668    4.1941 H   0  0  0  0  0  0  0  0  0  0  0  0
   29.6902    0.5280    4.1149 H   0  0  0  0  0  0  0  0  0  0  0  0
   30.0256    2.1112    3.3637 H   0  0  0  0  0  0  0  0  0  0  0  0
   29.5510    0.0979    6.2130 H   0  0  0  0  0  0  0  0  0  0  0  0
   28.9486    1.3257    7.3772 H   0  0  0  0  0  0  0  0  0  0  0  0
   27.0938    0.2708    6.3876 H   0  0  0  0  0  0  0  0  0  0  0  0
   27.7688    0.5486    4.6331 H   0  0  0  0  0  0  0  0  0  0  0  0
   26.8935    2.6440    6.6534 H   0  0  0  0  0  0  0  0  0  0  0  0
   27.8211    2.9378    3.8246 H   0  0  0  0  0  0  0  0  0  0  0  0
   27.7099    5.2965    4.2510 H   0  0  0  0  0  0  0  0  0  0  0  0
   26.9432    4.9255    5.9231 H   0  0  0  0  0  0  0  0  0  0  0  0
   26.0858    3.9863    3.1086 H   0  0  0  0  0  0  0  0  0  0  0  0
   25.2566    5.3433    4.0259 H   0  0  0  0  0  0  0  0  0  0  0  0
   23.2759    4.5476    4.6368 H   0  0  0  0  0  0  0  0  0  0  0  0
   22.8818    0.7477    6.4597 H   0  0  0  0  0  0  0  0  0  0  0  0
   23.3022    0.6077    4.6831 H   0  0  0  0  0  0  0  0  0  0  0  0
   25.2200    0.3610    6.2776 H   0  0  0  0  0  0  0  0  0  0  0  0
   24.8408    2.0023    6.9627 H   0  0  0  0  0  0  0  0  0  0  0  0
   26.4244    1.3234    3.0901 H   0  0  0  0  0  0  0  0  0  0  0  0
   25.7610    0.0653    4.2532 H   0  0  0  0  0  0  0  0  0  0  0  0
   24.7036    1.2022    3.3061 H   0  0  0  0  0  0  0  0  0  0  0  0
   29.1246    3.9361    6.4692 H   0  0  0  0  0  0  0  0  0  0  0  0
   30.2802    3.7647    3.6398 H   0  0  0  0  0  0  0  0  0  0  0  0
   30.0491    5.1883    4.6029 H   0  0  0  0  0  0  0  0  0  0  0  0
   31.6621    4.6207    6.0888 H   0  0  0  0  0  0  0  0  0  0  0  0
   32.3366    3.5352    4.7937 H   0  0  0  0  0  0  0  0  0  0  0  0
   30.9528    2.8165    7.3205 H   0  0  0  0  0  0  0  0  0  0  0  0
   32.7433    1.8091    5.4479 H   0  0  0  0  0  0  0  0  0  0  0  0
  2  1  1  6
  2  3  1  0
  3  4  1  0
  4  5  1  0
  5  6  1  0
  6  7  1  0
  7  8  1  0
  8  9  1  0
  9 10  2  0
 10 11  1  0
 11 12  2  0
 11 13  1  0
 13 14  1  0
 14 15  1  0
 15 16  1  6
  6 17  1  0
 17 18  1  0
 18 19  1  0
 19 20  1  0
 20 21  1  0
 17  2  1  0
 20  2  1  0
 15  5  1  0
 15  9  1  0
  1 22  1  0
  1 23  1  0
  1 24  1  0
  3 25  1  0
  3 26  1  0
  4 27  1  0
  4 28  1  0
  5 29  1  1
  6 30  1  6
  7 31  1  0
  7 32  1  0
  8 33  1  0
  8 34  1  0
 10 35  1  0
 13 36  1  0
 13 37  1  0
 14 38  1  0
 14 39  1  0
 16 40  1  0
 16 41  1  0
 16 42  1  0
 17 43  1  1
 18 44  1  0
 18 45  1  0
 19 46  1  0
 19 47  1  0
 20 48  1  1
 21 49  1  0
M  END
$$$$
