
     RDKit          3D

 49 52  0  0  0  0  0  0  0  0999 V2000
   30.0867    1.3600    4.6845 C   0  0  0  0  0  0  0  0  0  0  0  0
   29.6232    2.1940    5.8700 C   0  0  2  0  0  0  0  0  0  0  0  0
   28.7763    1.2651    6.6419 C   0  0  0  0  0  0  0  0  0  0  0  0
   27.6250    0.8429    5.8024 C   0  0  0  0  0  0  0  0  0  0  0  0
   26.8911    2.0600    5.3957 C   0  0  1  0  0  0  0  0  0  0  0  0
   27.7310    3.0596    4.6127 C   0  0  1  0  0  0  0  0  0  0  0  0
   26.8658    4.1723    4.1104 C   0  0  0  0  0  0  0  0  0  0  0  0
   25.8659    4.7023    5.1293 C   0  0  0  0  0  0  0  0  0  0  0  0
   24.9310    3.4630    5.3461 C   0  0  0  0  0  0  0  0  0  0  0  0
   23.6939    3.5565    5.7874 C   0  0  0  0  0  0  0  0  0  0  0  0
   22.9047    2.4087    5.9643 C   0  0  0  0  0  0  0  0  0  0  0  0
   21.8583    2.4063    6.6013 O   0  0  0  0  0  0  0  0  0  0  0  0
   23.2881    1.0628    5.3921 C   0  0  0  0  0  0  0  0  0  0  0  0
   24.7366    0.9387    5.7354 C   0  0  0  0  0  0  0  0  0  0  0  0
   25.4695    2.1148    5.0181 C   0  0  2  0  0  0  0  0  0  0  0  0
   25.3028    1.7852    3.5279 C   0  0  0  0  0  0  0  0  0  0  0  0
   28.8828    3.4699    5.4496 C   0  0  2  0  0  0  0  0  0  0  0  0
   30.0024    3.8310    4.4064 C   0  0  0  0  0  0  0  0  0  0  0  0
   31.2385    3.7606    5.2696 C   0  0  0  0  0  0  0  0  0  0  0  0
   30.8126    2.8244    6.4658 C   0  0  2  0  0  0  0  0  0  0  0  0
   31.7654    1.8337    6.6608 O   0  0  0  0  0  0  0  0  0  0  0  0
   29.4075    1.2738    3.8417 H   0  0  0  0  0  0  0  0  0  0  0  0
   31.0986    1.5700    4.3749 H   0  0  0  0  0  0  0  0  0  0  0  0
   30.1227    0.2687    5.0917 H   0  0  0  0  0  0  0  0  0  0  0  0
   29.3510    0.3662    6.9263 H   0  0  0  0  0  0  0  0  0  0  0  0
   28.3354    1.7334    7.5632 H   0  0  0  0  0  0  0  0  0  0  0  0
   27.9025    0.2224    4.8923 H   0  0  0  0  0  0  0  0  0  0  0  0
   26.9463    0.2586    6.4767 H   0  0  0  0  0  0  0  0  0  0  0  0
   26.8443    2.6503    6.4436 H   0  0  0  0  0  0  0  0  0  0  0  0
   28.1198    2.5542    3.6737 H   0  0  0  0  0  0  0  0  0  0  0  0
   26.4291    4.0071    3.1396 H   0  0  0  0  0  0  0  0  0  0  0  0
   27.5734    5.0375    3.8784 H   0  0  0  0  0  0  0  0  0  0  0  0
   25.2147    5.3861    4.5095 H   0  0  0  0  0  0  0  0  0  0  0  0
   26.2412    5.0454    5.9862 H   0  0  0  0  0  0  0  0  0  0  0  0
   23.3164    4.4863    6.0440 H   0  0  0  0  0  0  0  0  0  0  0  0
   22.9820    1.0482    4.3595 H   0  0  0  0  0  0  0  0  0  0  0  0
   22.7421    0.2253    5.9193 H   0  0  0  0  0  0  0  0  0  0  0  0
   24.8041    0.9474    6.8102 H   0  0  0  0  0  0  0  0  0  0  0  0
   25.1036    0.0215    5.2217 H   0  0  0  0  0  0  0  0  0  0  0  0
   24.5020    1.0018    3.4177 H   0  0  0  0  0  0  0  0  0  0  0  0
   26.2070    1.1884    3.1432 H   0  0  0  0  0  0  0  0  0  0  0  0
   24.9431    2.5773    2.9048 H   0  0  0  0  0  0  0  0  0  0  0  0
   28.8278    4.2287    6.1337 H   0  0  0  0  0  0  0  0  0  0  0  0
   29.9579    3.0438    3.6690 H   0  0  0  0  0  0  0  0  0  0  0  0
   29.7613    4.7957    3.9775 H   0  0  0  0  0  0  0  0  0  0  0  0
   31.5180    4.7438    5.6586 H   0  0  0  0  0  0  0  0  0  0  0  0
   32.1009    3.1940    4.7798 H   0  0  0  0  0  0  0  0  0  0  0  0
   30.6961    3.4552    7.3349 H   0  0  0  0  0  0  0  0  0  0  0  0
   32.5137    2.1947    7.1749 H   0  0  0  0  0  0  0  0  0  0  0  0
  2  1  1  6
  2  3  1  0
  3  4  1  0
  4  5  1  0
  5  6  1  0
  6  7  1  0
  7  8  1  0
  8  9  1  0
  9 10  2  0
 10 11  1  0
 11 12  2  0
 11 13  1  0
 13 14  1  0
 14 15  1  0
 15 16  1  6
  6 17  1  0
 17 18  1  0
 18 19  1  0
 19 20  1  0
 20 21  1  0
 17  2  1  0
 20  2  1  0
 15  5  1  0
 15  9  1  0
  1 22  1  0
  1 23  1  0
  1 24  1  0
  3 25  1  0
  3 26  1  0
  4 27  1  0
  4 28  1  0
  5 29  1  1
  6 30  1  6
  7 31  1  0
  7 32  1  0
  8 33  1  0
  8 34  1  0
 10 35  1  0
 13 36  1  0
 13 37  1  0
 14 38  1  0
 14 39  1  0
 16 40  1  0
 16 41  1  0
 16 42  1  0
 17 43  1  1
 18 44  1  0
 18 45  1  0
 19 46  1  0
 19 47  1  0
 20 48  1  1
 21 49  1  0
M  END
$$$$
