
     RDKit          3D

 49 52  0  0  0  0  0  0  0  0999 V2000
   29.9700    1.5936    4.3115 C   0  0  0  0  0  0  0  0  0  0  0  0
   29.7657    2.1622    5.7227 C   0  0  2  0  0  0  0  0  0  0  0  0
   29.0489    1.1314    6.5503 C   0  0  0  0  0  0  0  0  0  0  0  0
   27.6783    0.9765    5.9584 C   0  0  0  0  0  0  0  0  0  0  0  0
   26.8968    2.1950    5.8013 C   0  0  1  0  0  0  0  0  0  0  0  0
   27.6937    3.1888    5.0341 C   0  0  1  0  0  0  0  0  0  0  0  0
   27.0334    4.4657    4.7425 C   0  0  0  0  0  0  0  0  0  0  0  0
   25.6981    4.2146    4.0157 C   0  0  0  0  0  0  0  0  0  0  0  0
   24.8715    3.3061    4.8964 C   0  0  0  0  0  0  0  0  0  0  0  0
   23.5977    3.7518    5.2034 C   0  0  0  0  0  0  0  0  0  0  0  0
   22.9151    2.7390    6.0368 C   0  0  0  0  0  0  0  0  0  0  0  0
   22.0476    3.2928    6.6911 O   0  0  0  0  0  0  0  0  0  0  0  0
   23.3878    1.3874    5.9992 C   0  0  0  0  0  0  0  0  0  0  0  0
   24.7800    1.0781    6.0223 C   0  0  0  0  0  0  0  0  0  0  0  0
   25.5361    2.0347    5.0798 C   0  0  2  0  0  0  0  0  0  0  0  0
   25.8500    1.3841    3.7909 C   0  0  0  0  0  0  0  0  0  0  0  0
   29.0584    3.4693    5.6776 C   0  0  2  0  0  0  0  0  0  0  0  0
   29.9610    4.2342    4.8233 C   0  0  0  0  0  0  0  0  0  0  0  0
   31.3567    3.8857    5.3989 C   0  0  0  0  0  0  0  0  0  0  0  0
   31.0648    2.6422    6.2854 C   0  0  2  0  0  0  0  0  0  0  0  0
   32.1084    1.7281    6.0079 O   0  0  0  0  0  0  0  0  0  0  0  0
   30.8019    0.8649    4.3578 H   0  0  0  0  0  0  0  0  0  0  0  0
   29.1000    1.0215    3.9572 H   0  0  0  0  0  0  0  0  0  0  0  0
   30.2872    2.3667    3.6093 H   0  0  0  0  0  0  0  0  0  0  0  0
   28.9385    1.6471    7.5479 H   0  0  0  0  0  0  0  0  0  0  0  0
   29.5567    0.2084    6.6317 H   0  0  0  0  0  0  0  0  0  0  0  0
   27.2144    0.3703    6.8843 H   0  0  0  0  0  0  0  0  0  0  0  0
   27.6974    0.2007    5.2090 H   0  0  0  0  0  0  0  0  0  0  0  0
   26.6724    2.6994    6.7824 H   0  0  0  0  0  0  0  0  0  0  0  0
   27.9895    2.7621    4.0098 H   0  0  0  0  0  0  0  0  0  0  0  0
   26.9620    5.0281    5.6866 H   0  0  0  0  0  0  0  0  0  0  0  0
   27.6979    5.0495    4.0340 H   0  0  0  0  0  0  0  0  0  0  0  0
   25.2181    5.2744    4.1245 H   0  0  0  0  0  0  0  0  0  0  0  0
   25.8047    4.0529    2.9875 H   0  0  0  0  0  0  0  0  0  0  0  0
   23.1820    4.6259    4.8079 H   0  0  0  0  0  0  0  0  0  0  0  0
   22.6059    0.7485    5.5654 H   0  0  0  0  0  0  0  0  0  0  0  0
   23.0571    0.9932    7.2073 H   0  0  0  0  0  0  0  0  0  0  0  0
   25.2656    0.6620    6.7904 H   0  0  0  0  0  0  0  0  0  0  0  0
   24.7037    0.0627    5.2856 H   0  0  0  0  0  0  0  0  0  0  0  0
   26.8800    1.0835    3.6109 H   0  0  0  0  0  0  0  0  0  0  0  0
   25.2450    0.4679    3.5404 H   0  0  0  0  0  0  0  0  0  0  0  0
   25.6138    2.0647    2.9201 H   0  0  0  0  0  0  0  0  0  0  0  0
   28.8441    3.7674    6.7215 H   0  0  0  0  0  0  0  0  0  0  0  0
   29.8051    4.3050    3.8190 H   0  0  0  0  0  0  0  0  0  0  0  0
   29.7974    5.3460    5.2684 H   0  0  0  0  0  0  0  0  0  0  0  0
   31.9830    3.5596    4.5404 H   0  0  0  0  0  0  0  0  0  0  0  0
   31.7666    4.6879    5.9876 H   0  0  0  0  0  0  0  0  0  0  0  0
   31.0383    2.9219    7.3019 H   0  0  0  0  0  0  0  0  0  0  0  0
   32.3243    1.2374    6.8220 H   0  0  0  0  0  0  0  0  0  0  0  0
  2  1  1  6
  2  3  1  0
  3  4  1  0
  4  5  1  0
  5  6  1  0
  6  7  1  0
  7  8  1  0
  8  9  1  0
  9 10  2  0
 10 11  1  0
 11 12  2  0
 11 13  1  0
 13 14  1  0
 14 15  1  0
 15 16  1  6
  6 17  1  0
 17 18  1  0
 18 19  1  0
 19 20  1  0
 20 21  1  0
 17  2  1  0
 20  2  1  0
 15  5  1  0
 15  9  1  0
  1 22  1  0
  1 23  1  0
  1 24  1  0
  3 25  1  0
  3 26  1  0
  4 27  1  0
  4 28  1  0
  5 29  1  1
  6 30  1  6
  7 31  1  0
  7 32  1  0
  8 33  1  0
  8 34  1  0
 10 35  1  0
 13 36  1  0
 13 37  1  0
 14 38  1  0
 14 39  1  0
 16 40  1  0
 16 41  1  0
 16 42  1  0
 17 43  1  1
 18 44  1  0
 18 45  1  0
 19 46  1  0
 19 47  1  0
 20 48  1  1
 21 49  1  0
M  END
$$$$
