
     RDKit          3D

 49 51  0  0  0  0  0  0  0  0999 V2000
   32.2160    3.3172    3.7840 C   0  0  0  0  0  0  0  0  0  0  0  0
   32.5455    2.1307    4.6478 C   0  0  0  0  0  0  0  0  0  0  0  0
   31.7184    2.1917    5.9122 C   0  0  0  0  0  0  0  0  0  0  0  0
   30.2525    2.1639    5.4862 C   0  0  0  0  0  0  0  0  0  0  0  0
   29.4119    2.2246    6.7415 C   0  0  0  0  0  0  0  0  0  0  0  0
   27.9710    2.2005    6.3839 C   0  0  0  0  0  0  0  0  0  0  0  0
   27.3370    0.9892    6.2844 C   0  0  0  0  0  0  0  0  0  0  0  0
   25.9780    0.9264    5.9490 C   0  0  0  0  0  0  0  0  0  0  0  0
   25.4555   -0.3498    5.8804 O   0  0  0  0  0  0  0  0  0  0  0  0
   25.2960    2.0783    5.7237 C   0  0  0  0  0  0  0  0  0  0  0  0
   25.9096    3.3250    5.8165 C   0  0  0  0  0  0  0  0  0  0  0  0
   27.2590    3.3545    6.1510 C   0  0  0  0  0  0  0  0  0  0  0  0
   25.2892    4.5150    5.6047 O   0  0  0  0  0  0  0  0  0  0  0  0
   23.9338    4.5909    5.2635 C   0  0  0  0  0  0  0  0  0  0  0  0
   23.7151    5.2689    3.9253 C   0  0  0  0  0  0  0  0  0  0  0  0
   23.2767    5.4138    6.3826 C   0  0  0  0  0  0  0  0  0  0  0  0
   23.2743    3.2674    5.1631 C   0  0  0  0  0  0  0  0  0  0  0  0
   21.9197    3.2944    4.8245 C   0  0  0  0  0  0  0  0  0  0  0  0
   21.2326    2.1127    4.7103 C   0  0  0  0  0  0  0  0  0  0  0  0
   21.8231    0.8910    4.9161 C   0  0  0  0  0  0  0  0  0  0  0  0
   21.0626   -0.3802    4.7880 C   0  0  0  0  0  0  0  0  0  0  0  0
   23.1866    0.8969    5.2554 C   0  0  0  0  0  0  0  0  0  0  0  0
   23.8988    2.0671    5.3763 C   0  0  0  0  0  0  0  0  0  0  0  0
   31.9020    4.2121    4.3578 H   0  0  0  0  0  0  0  0  0  0  0  0
   31.4450    3.0733    3.0283 H   0  0  0  0  0  0  0  0  0  0  0  0
   33.1707    3.6266    3.2784 H   0  0  0  0  0  0  0  0  0  0  0  0
   33.6278    2.0227    4.8451 H   0  0  0  0  0  0  0  0  0  0  0  0
   32.1773    1.2201    4.0920 H   0  0  0  0  0  0  0  0  0  0  0  0
   31.9422    3.1083    6.4938 H   0  0  0  0  0  0  0  0  0  0  0  0
   31.9422    1.3313    6.5745 H   0  0  0  0  0  0  0  0  0  0  0  0
   30.0177    1.1933    5.0116 H   0  0  0  0  0  0  0  0  0  0  0  0
   30.0964    3.0044    4.8076 H   0  0  0  0  0  0  0  0  0  0  0  0
   29.6244    1.3191    7.3347 H   0  0  0  0  0  0  0  0  0  0  0  0
   29.6767    3.1507    7.3077 H   0  0  0  0  0  0  0  0  0  0  0  0
   27.9153    0.0842    6.4720 H   0  0  0  0  0  0  0  0  0  0  0  0
   25.6855   -1.1017    6.5476 H   0  0  0  0  0  0  0  0  0  0  0  0
   27.7696    4.2967    6.2328 H   0  0  0  0  0  0  0  0  0  0  0  0
   23.3467    4.5715    3.1417 H   0  0  0  0  0  0  0  0  0  0  0  0
   24.6625    5.6885    3.5270 H   0  0  0  0  0  0  0  0  0  0  0  0
   22.9120    6.0162    4.0675 H   0  0  0  0  0  0  0  0  0  0  0  0
   22.2132    5.5915    6.1662 H   0  0  0  0  0  0  0  0  0  0  0  0
   23.8674    6.3513    6.4412 H   0  0  0  0  0  0  0  0  0  0  0  0
   23.4600    4.8632    7.3159 H   0  0  0  0  0  0  0  0  0  0  0  0
   21.3954    4.2266    4.6490 H   0  0  0  0  0  0  0  0  0  0  0  0
   20.1860    2.1135    4.4496 H   0  0  0  0  0  0  0  0  0  0  0  0
   20.4526   -0.3854    3.8525 H   0  0  0  0  0  0  0  0  0  0  0  0
   21.7481   -1.2373    4.7040 H   0  0  0  0  0  0  0  0  0  0  0  0
   20.3440   -0.4845    5.6271 H   0  0  0  0  0  0  0  0  0  0  0  0
   23.5972   -0.0823    5.4048 H   0  0  0  0  0  0  0  0  0  0  0  0
  1  2  1  0
  2  3  1  0
  3  4  1  0
  4  5  1  0
  5  6  1  0
  6  7  2  0
  7  8  1  0
  8  9  1  0
  8 10  2  0
 10 11  1  0
 11 12  2  0
 11 13  1  0
 13 14  1  0
 14 15  1  0
 14 16  1  0
 14 17  1  0
 17 18  2  0
 18 19  1  0
 19 20  2  0
 20 21  1  0
 20 22  1  0
 22 23  2  0
 12  6  1  0
 23 17  1  0
 23 10  1  0
  1 24  1  0
  1 25  1  0
  1 26  1  0
  2 27  1  0
  2 28  1  0
  3 29  1  0
  3 30  1  0
  4 31  1  0
  4 32  1  0
  5 33  1  0
  5 34  1  0
  7 35  1  0
  9 36  1  0
 12 37  1  0
 15 38  1  0
 15 39  1  0
 15 40  1  0
 16 41  1  0
 16 42  1  0
 16 43  1  0
 18 44  1  0
 19 45  1  0
 21 46  1  0
 21 47  1  0
 21 48  1  0
 22 49  1  0
M  END
$$$$
