
     RDKit          3D

 49 51  0  0  0  0  0  0  0  0999 V2000
   33.5262    3.2694    5.5750 C   0  0  0  0  0  0  0  0  0  0  0  0
   32.0161    3.3768    5.5386 C   0  0  0  0  0  0  0  0  0  0  0  0
   31.4778    2.0672    4.9738 C   0  0  0  0  0  0  0  0  0  0  0  0
   29.9793    2.0814    4.8971 C   0  0  0  0  0  0  0  0  0  0  0  0
   29.3628    2.2773    6.2678 C   0  0  0  0  0  0  0  0  0  0  0  0
   27.8775    2.2755    6.0911 C   0  0  0  0  0  0  0  0  0  0  0  0
   27.2461    1.0583    6.1840 C   0  0  0  0  0  0  0  0  0  0  0  0
   25.8553    0.9925    6.0274 C   0  0  0  0  0  0  0  0  0  0  0  0
   25.3125   -0.2707    6.1371 O   0  0  0  0  0  0  0  0  0  0  0  0
   25.1365    2.1367    5.7839 C   0  0  0  0  0  0  0  0  0  0  0  0
   25.8162    3.3288    5.7003 C   0  0  0  0  0  0  0  0  0  0  0  0
   27.1848    3.4286    5.8495 C   0  0  0  0  0  0  0  0  0  0  0  0
   25.1227    4.4933    5.4571 O   0  0  0  0  0  0  0  0  0  0  0  0
   23.7484    4.6222    5.2756 C   0  0  0  0  0  0  0  0  0  0  0  0
   23.5288    5.2581    3.9182 C   0  0  0  0  0  0  0  0  0  0  0  0
   23.2005    5.5328    6.3573 C   0  0  0  0  0  0  0  0  0  0  0  0
   23.0520    3.2889    5.3767 C   0  0  0  0  0  0  0  0  0  0  0  0
   21.6703    3.3536    5.2033 C   0  0  0  0  0  0  0  0  0  0  0  0
   20.9959    2.1573    5.2881 C   0  0  0  0  0  0  0  0  0  0  0  0
   21.5989    0.9475    5.5269 C   0  0  0  0  0  0  0  0  0  0  0  0
   20.8017   -0.2913    5.6030 C   0  0  0  0  0  0  0  0  0  0  0  0
   22.9935    0.9532    5.6921 C   0  0  0  0  0  0  0  0  0  0  0  0
   23.7096    2.1207    5.6163 C   0  0  0  0  0  0  0  0  0  0  0  0
   33.7987    2.2100    5.7731 H   0  0  0  0  0  0  0  0  0  0  0  0
   33.9413    3.5520    4.5988 H   0  0  0  0  0  0  0  0  0  0  0  0
   33.9017    3.8934    6.4252 H   0  0  0  0  0  0  0  0  0  0  0  0
   31.6315    3.4961    6.5719 H   0  0  0  0  0  0  0  0  0  0  0  0
   31.6466    4.2415    4.9530 H   0  0  0  0  0  0  0  0  0  0  0  0
   31.8728    1.9460    3.9453 H   0  0  0  0  0  0  0  0  0  0  0  0
   31.7726    1.2087    5.5971 H   0  0  0  0  0  0  0  0  0  0  0  0
   29.6742    1.0873    4.5057 H   0  0  0  0  0  0  0  0  0  0  0  0
   29.5820    2.8277    4.2036 H   0  0  0  0  0  0  0  0  0  0  0  0
   29.6184    3.2498    6.7051 H   0  0  0  0  0  0  0  0  0  0  0  0
   29.6872    1.4943    6.9830 H   0  0  0  0  0  0  0  0  0  0  0  0
   27.8308    0.1506    6.3789 H   0  0  0  0  0  0  0  0  0  0  0  0
   25.6560   -0.8951    6.8616 H   0  0  0  0  0  0  0  0  0  0  0  0
   27.7283    4.3631    5.7853 H   0  0  0  0  0  0  0  0  0  0  0  0
   24.4515    5.6222    3.4407 H   0  0  0  0  0  0  0  0  0  0  0  0
   22.8803    6.1736    4.0361 H   0  0  0  0  0  0  0  0  0  0  0  0
   22.9890    4.6004    3.2148 H   0  0  0  0  0  0  0  0  0  0  0  0
   22.6702    4.9456    7.1469 H   0  0  0  0  0  0  0  0  0  0  0  0
   22.4673    6.2484    5.9171 H   0  0  0  0  0  0  0  0  0  0  0  0
   24.0034    6.0946    6.8888 H   0  0  0  0  0  0  0  0  0  0  0  0
   21.1563    4.2881    5.0131 H   0  0  0  0  0  0  0  0  0  0  0  0
   19.9227    2.1512    5.1612 H   0  0  0  0  0  0  0  0  0  0  0  0
   19.8721   -0.1199    6.2194 H   0  0  0  0  0  0  0  0  0  0  0  0
   21.3512   -1.1343    6.0263 H   0  0  0  0  0  0  0  0  0  0  0  0
   20.3944   -0.4805    4.5698 H   0  0  0  0  0  0  0  0  0  0  0  0
   23.4090   -0.0189    5.8758 H   0  0  0  0  0  0  0  0  0  0  0  0
  1  2  1  0
  2  3  1  0
  3  4  1  0
  4  5  1  0
  5  6  1  0
  6  7  2  0
  7  8  1  0
  8  9  1  0
  8 10  2  0
 10 11  1  0
 11 12  2  0
 11 13  1  0
 13 14  1  0
 14 15  1  0
 14 16  1  0
 14 17  1  0
 17 18  2  0
 18 19  1  0
 19 20  2  0
 20 21  1  0
 20 22  1  0
 22 23  2  0
 12  6  1  0
 23 17  1  0
 23 10  1  0
  1 24  1  0
  1 25  1  0
  1 26  1  0
  2 27  1  0
  2 28  1  0
  3 29  1  0
  3 30  1  0
  4 31  1  0
  4 32  1  0
  5 33  1  0
  5 34  1  0
  7 35  1  0
  9 36  1  0
 12 37  1  0
 15 38  1  0
 15 39  1  0
 15 40  1  0
 16 41  1  0
 16 42  1  0
 16 43  1  0
 18 44  1  0
 19 45  1  0
 21 46  1  0
 21 47  1  0
 21 48  1  0
 22 49  1  0
M  END
$$$$
