
     RDKit          3D

 53 55  0  0  0  0  0  0  0  0999 V2000
   33.3662    4.0659    9.6943 C   0  0  0  0  0  0  0  0  0  0  0  0
   32.9913    2.8338    8.9437 C   0  0  0  0  0  0  0  0  0  0  0  0
   31.7000    3.0585    8.2308 C   0  0  0  0  0  0  0  0  0  0  0  0
   31.3956    1.7873    7.5073 C   0  0  0  0  0  0  0  0  0  0  0  0
   30.1802    1.8113    6.7165 C   0  0  0  0  0  0  0  0  0  0  0  0
   28.9333    2.1067    7.4021 C   0  0  0  0  0  0  0  0  0  0  0  0
   28.3925    1.1077    8.2093 C   0  0  0  0  0  0  0  0  0  0  0  0
   27.1402    1.3020    8.7711 C   0  0  0  0  0  0  0  0  0  0  0  0
   26.5272    0.4073    9.5964 O   0  0  0  0  0  0  0  0  0  0  0  0
   26.4224    2.4818    8.5237 C   0  0  0  0  0  0  0  0  0  0  0  0
   26.9692    3.4870    7.7329 C   0  0  0  0  0  0  0  0  0  0  0  0
   28.2359    3.2993    7.1610 C   0  0  0  0  0  0  0  0  0  0  0  0
   26.3735    4.7249    7.4749 O   0  0  0  0  0  0  0  0  0  0  0  0
   25.0947    5.0252    8.0486 C   0  0  0  0  0  0  0  0  0  0  0  0
   24.3659    5.4993    6.6533 C   0  0  0  0  0  0  0  0  0  0  0  0
   25.0270    6.2379    8.8491 C   0  0  0  0  0  0  0  0  0  0  0  0
   24.4062    3.7753    8.3706 C   0  0  2  0  0  0  0  0  0  0  0  0
   23.0437    4.0345    8.9849 C   0  0  0  0  0  0  0  0  0  0  0  0
   22.3252    2.7846    9.3273 C   0  0  0  0  0  0  0  0  0  0  0  0
   22.9419    1.5634    8.7794 C   0  0  0  0  0  0  0  0  0  0  0  0
   22.0761    0.4345    8.2453 C   0  0  0  0  0  0  0  0  0  0  0  0
   24.2395    1.4802    8.6855 C   0  0  0  0  0  0  0  0  0  0  0  0
   25.1110    2.7216    9.1691 C   0  0  1  0  0  0  0  0  0  0  0  0
   33.6710    4.8093    8.9308 H   0  0  0  0  0  0  0  0  0  0  0  0
   32.5111    4.4442   10.2794 H   0  0  0  0  0  0  0  0  0  0  0  0
   34.2055    3.8429   10.4029 H   0  0  0  0  0  0  0  0  0  0  0  0
   32.9536    1.8992    9.5739 H   0  0  0  0  0  0  0  0  0  0  0  0
   33.7341    2.6664    8.1179 H   0  0  0  0  0  0  0  0  0  0  0  0
   31.8018    3.8457    7.4086 H   0  0  0  0  0  0  0  0  0  0  0  0
   30.8490    3.3494    8.9139 H   0  0  0  0  0  0  0  0  0  0  0  0
   31.3674    0.8763    8.1863 H   0  0  0  0  0  0  0  0  0  0  0  0
   32.2433    1.6156    6.7793 H   0  0  0  0  0  0  0  0  0  0  0  0
   30.0865    0.8168    6.1712 H   0  0  0  0  0  0  0  0  0  0  0  0
   30.2173    2.5368    5.8346 H   0  0  0  0  0  0  0  0  0  0  0  0
   28.9318    0.2069    8.4022 H   0  0  0  0  0  0  0  0  0  0  0  0
   26.7572   -0.5840    9.6135 H   0  0  0  0  0  0  0  0  0  0  0  0
   28.7063    4.0481    6.5228 H   0  0  0  0  0  0  0  0  0  0  0  0
   24.9835    6.3304    6.3885 H   0  0  0  0  0  0  0  0  0  0  0  0
   24.5507    4.6041    5.9853 H   0  0  0  0  0  0  0  0  0  0  0  0
   23.3369    5.6999    6.8938 H   0  0  0  0  0  0  0  0  0  0  0  0
   24.0950    6.8814    8.6720 H   0  0  0  0  0  0  0  0  0  0  0  0
   25.8312    6.9643    8.4230 H   0  0  0  0  0  0  0  0  0  0  0  0
   25.1389    6.1457    9.9813 H   0  0  0  0  0  0  0  0  0  0  0  0
   24.1855    3.2985    7.3584 H   0  0  0  0  0  0  0  0  0  0  0  0
   22.3961    4.6779    8.3475 H   0  0  0  0  0  0  0  0  0  0  0  0
   23.2276    4.5938    9.9468 H   0  0  0  0  0  0  0  0  0  0  0  0
   21.2825    2.8619    9.0792 H   0  0  0  0  0  0  0  0  0  0  0  0
   22.2945    2.5858   10.4697 H   0  0  0  0  0  0  0  0  0  0  0  0
   22.6731   -0.3715    7.7795 H   0  0  0  0  0  0  0  0  0  0  0  0
   21.2874    0.1478    8.9392 H   0  0  0  0  0  0  0  0  0  0  0  0
   21.5565    0.9453    7.3654 H   0  0  0  0  0  0  0  0  0  0  0  0
   24.7486    0.6217    8.2970 H   0  0  0  0  0  0  0  0  0  0  0  0
   25.0711    2.7152   10.1973 H   0  0  0  0  0  0  0  0  0  0  0  0
  1  2  1  0
  2  3  1  0
  3  4  1  0
  4  5  1  0
  5  6  1  0
  6  7  2  0
  7  8  1  0
  8  9  1  0
  8 10  2  0
 10 11  1  0
 11 12  2  0
 11 13  1  0
 13 14  1  0
 14 15  1  0
 14 16  1  0
 14 17  1  0
 17 18  1  0
 18 19  1  0
 19 20  1  0
 20 21  1  0
 20 22  2  0
 22 23  1  0
 12  6  1  0
 23 17  1  0
 23 10  1  0
  1 24  1  0
  1 25  1  0
  1 26  1  0
  2 27  1  0
  2 28  1  0
  3 29  1  0
  3 30  1  0
  4 31  1  0
  4 32  1  0
  5 33  1  0
  5 34  1  0
  7 35  1  0
  9 36  1  0
 12 37  1  0
 15 38  1  0
 15 39  1  0
 15 40  1  0
 16 41  1  0
 16 42  1  0
 16 43  1  0
 17 44  1  6
 18 45  1  0
 18 46  1  0
 19 47  1  0
 19 48  1  0
 21 49  1  0
 21 50  1  0
 21 51  1  0
 22 52  1  0
 23 53  1  1
M  END
$$$$
