
     RDKit          3D

 53 55  0  0  0  0  0  0  0  0999 V2000
   34.0785    1.5062    6.9403 C   0  0  0  0  0  0  0  0  0  0  0  0
   32.6527    1.6697    7.4373 C   0  0  0  0  0  0  0  0  0  0  0  0
   32.5470    2.8708    8.3777 C   0  0  0  0  0  0  0  0  0  0  0  0
   31.1285    2.9609    8.9071 C   0  0  0  0  0  0  0  0  0  0  0  0
   30.1861    3.0817    7.7670 C   0  0  0  0  0  0  0  0  0  0  0  0
   28.7518    3.1010    8.1718 C   0  0  0  0  0  0  0  0  0  0  0  0
   28.2401    1.8841    8.5091 C   0  0  0  0  0  0  0  0  0  0  0  0
   26.8356    1.7234    8.6586 C   0  0  0  0  0  0  0  0  0  0  0  0
   26.4916    0.4531    9.0108 O   0  0  0  0  0  0  0  0  0  0  0  0
   25.9722    2.8702    8.4345 C   0  0  0  0  0  0  0  0  0  0  0  0
   26.5828    4.0418    8.1186 C   0  0  0  0  0  0  0  0  0  0  0  0
   27.9792    4.2114    7.9698 C   0  0  0  0  0  0  0  0  0  0  0  0
   25.8616    5.2519    7.9930 O   0  0  0  0  0  0  0  0  0  0  0  0
   24.3805    5.2154    8.2640 C   0  0  0  0  0  0  0  0  0  0  0  0
   24.1397    5.5236    9.6507 C   0  0  0  0  0  0  0  0  0  0  0  0
   23.9046    6.3650    7.4125 C   0  0  0  0  0  0  0  0  0  0  0  0
   23.9812    3.8782    7.8085 C   0  0  2  0  0  0  0  0  0  0  0  0
   22.4061    3.7070    7.8635 C   0  0  0  0  0  0  0  0  0  0  0  0
   22.0067    2.3322    7.2612 C   0  0  0  0  0  0  0  0  0  0  0  0
   22.7597    1.1772    7.5661 C   0  0  0  0  0  0  0  0  0  0  0  0
   22.4137   -0.2551    7.1896 C   0  0  0  0  0  0  0  0  0  0  0  0
   23.9580    1.4191    8.1561 C   0  0  0  0  0  0  0  0  0  0  0  0
   24.5060    2.7443    8.5352 C   0  0  1  0  0  0  0  0  0  0  0  0
   34.0090    1.0281    5.9342 H   0  0  0  0  0  0  0  0  0  0  0  0
   34.5925    0.8673    7.6901 H   0  0  0  0  0  0  0  0  0  0  0  0
   34.5527    2.4969    6.8760 H   0  0  0  0  0  0  0  0  0  0  0  0
   32.4071    0.7793    7.9570 H   0  0  0  0  0  0  0  0  0  0  0  0
   31.9776    1.9091    6.5435 H   0  0  0  0  0  0  0  0  0  0  0  0
   32.7481    3.7823    7.7603 H   0  0  0  0  0  0  0  0  0  0  0  0
   33.2715    2.7247    9.2086 H   0  0  0  0  0  0  0  0  0  0  0  0
   30.8933    2.0171    9.4314 H   0  0  0  0  0  0  0  0  0  0  0  0
   31.0294    3.7821    9.6376 H   0  0  0  0  0  0  0  0  0  0  0  0
   30.3914    4.0165    7.1724 H   0  0  0  0  0  0  0  0  0  0  0  0
   30.2715    2.1988    7.0278 H   0  0  0  0  0  0  0  0  0  0  0  0
   28.9551    1.1410    8.7708 H   0  0  0  0  0  0  0  0  0  0  0  0
   26.8884   -0.2704    8.4729 H   0  0  0  0  0  0  0  0  0  0  0  0
   28.3828    5.1192    7.6107 H   0  0  0  0  0  0  0  0  0  0  0  0
   24.8504    5.0624   10.3704 H   0  0  0  0  0  0  0  0  0  0  0  0
   24.2978    6.5927    9.8068 H   0  0  0  0  0  0  0  0  0  0  0  0
   23.0912    5.2482    9.9748 H   0  0  0  0  0  0  0  0  0  0  0  0
   23.0576    6.1623    6.8136 H   0  0  0  0  0  0  0  0  0  0  0  0
   23.8287    7.2375    8.0669 H   0  0  0  0  0  0  0  0  0  0  0  0
   24.7051    6.6523    6.6599 H   0  0  0  0  0  0  0  0  0  0  0  0
   24.2704    3.6828    6.7249 H   0  0  0  0  0  0  0  0  0  0  0  0
   22.0190    3.7708    8.8173 H   0  0  0  0  0  0  0  0  0  0  0  0
   22.0072    4.4531    7.1641 H   0  0  0  0  0  0  0  0  0  0  0  0
   20.8959    2.2137    7.5194 H   0  0  0  0  0  0  0  0  0  0  0  0
   21.9839    2.4998    6.1304 H   0  0  0  0  0  0  0  0  0  0  0  0
   21.8260   -0.7257    7.9963 H   0  0  0  0  0  0  0  0  0  0  0  0
   23.3633   -0.8581    7.1628 H   0  0  0  0  0  0  0  0  0  0  0  0
   21.9684   -0.2284    6.2225 H   0  0  0  0  0  0  0  0  0  0  0  0
   24.5452    0.4654    8.2931 H   0  0  0  0  0  0  0  0  0  0  0  0
   24.3116    2.7294    9.6653 H   0  0  0  0  0  0  0  0  0  0  0  0
  1  2  1  0
  2  3  1  0
  3  4  1  0
  4  5  1  0
  5  6  1  0
  6  7  2  0
  7  8  1  0
  8  9  1  0
  8 10  2  0
 10 11  1  0
 11 12  2  0
 11 13  1  0
 13 14  1  0
 14 15  1  0
 14 16  1  0
 14 17  1  0
 17 18  1  0
 18 19  1  0
 19 20  1  0
 20 21  1  0
 20 22  2  0
 22 23  1  0
 12  6  1  0
 23 17  1  0
 23 10  1  0
  1 24  1  0
  1 25  1  0
  1 26  1  0
  2 27  1  0
  2 28  1  0
  3 29  1  0
  3 30  1  0
  4 31  1  0
  4 32  1  0
  5 33  1  0
  5 34  1  0
  7 35  1  0
  9 36  1  0
 12 37  1  0
 15 38  1  0
 15 39  1  0
 15 40  1  0
 16 41  1  0
 16 42  1  0
 16 43  1  0
 17 44  1  6
 18 45  1  0
 18 46  1  0
 19 47  1  0
 19 48  1  0
 21 49  1  0
 21 50  1  0
 21 51  1  0
 22 52  1  0
 23 53  1  1
M  END
$$$$
