
     RDKit          3D

 53 55  0  0  0  0  0  0  0  0999 V2000
   34.1769    2.8254    8.0001 C   0  0  0  0  0  0  0  0  0  0  0  0
   32.7477    2.2259    7.8450 C   0  0  0  0  0  0  0  0  0  0  0  0
   31.8836    3.2400    7.1621 C   0  0  0  0  0  0  0  0  0  0  0  0
   30.4426    2.8373    7.0629 C   0  0  0  0  0  0  0  0  0  0  0  0
   29.9316    2.6879    8.4982 C   0  0  0  0  0  0  0  0  0  0  0  0
   28.4826    2.4898    8.5819 C   0  0  0  0  0  0  0  0  0  0  0  0
   27.8105    1.3538    8.9503 C   0  0  0  0  0  0  0  0  0  0  0  0
   26.4194    1.3438    9.0012 C   0  0  0  0  0  0  0  0  0  0  0  0
   25.8308    0.1217    9.3881 O   0  0  0  0  0  0  0  0  0  0  0  0
   25.6580    2.4272    8.7005 C   0  0  0  0  0  0  0  0  0  0  0  0
   26.3074    3.5880    8.3370 C   0  0  0  0  0  0  0  0  0  0  0  0
   27.6855    3.5740    8.2857 C   0  0  0  0  0  0  0  0  0  0  0  0
   25.7066    4.8051    8.0612 O   0  0  0  0  0  0  0  0  0  0  0  0
   24.2800    5.0264    8.2196 C   0  0  0  0  0  0  0  0  0  0  0  0
   24.0964    5.8597    9.4174 C   0  0  0  0  0  0  0  0  0  0  0  0
   23.9335    5.8460    6.9641 C   0  0  0  0  0  0  0  0  0  0  0  0
   23.6780    3.7186    8.0752 C   0  0  2  0  0  0  0  0  0  0  0  0
   22.1578    3.7857    8.2115 C   0  0  0  0  0  0  0  0  0  0  0  0
   21.4561    2.4891    8.0939 C   0  0  0  0  0  0  0  0  0  0  0  0
   22.3811    1.3840    7.7562 C   0  0  0  0  0  0  0  0  0  0  0  0
   21.8191    0.2522    6.9441 C   0  0  0  0  0  0  0  0  0  0  0  0
   23.6148    1.3734    8.1070 C   0  0  0  0  0  0  0  0  0  0  0  0
   24.1773    2.5486    8.8882 C   0  0  1  0  0  0  0  0  0  0  0  0
   34.4818    2.6952    9.0952 H   0  0  0  0  0  0  0  0  0  0  0  0
   34.1251    3.8839    7.7624 H   0  0  0  0  0  0  0  0  0  0  0  0
   34.8496    2.2320    7.3647 H   0  0  0  0  0  0  0  0  0  0  0  0
   32.8609    1.2832    7.2152 H   0  0  0  0  0  0  0  0  0  0  0  0
   32.4138    1.8923    8.8329 H   0  0  0  0  0  0  0  0  0  0  0  0
   31.8819    4.2232    7.7055 H   0  0  0  0  0  0  0  0  0  0  0  0
   32.2711    3.4375    6.1594 H   0  0  0  0  0  0  0  0  0  0  0  0
   30.3521    1.8638    6.5990 H   0  0  0  0  0  0  0  0  0  0  0  0
   29.8956    3.6255    6.5354 H   0  0  0  0  0  0  0  0  0  0  0  0
   30.4171    1.7930    8.9881 H   0  0  0  0  0  0  0  0  0  0  0  0
   30.2466    3.5496    9.0689 H   0  0  0  0  0  0  0  0  0  0  0  0
   28.3716    0.4749    9.2076 H   0  0  0  0  0  0  0  0  0  0  0  0
   25.6819    0.0614   10.3993 H   0  0  0  0  0  0  0  0  0  0  0  0
   28.1827    4.4953    7.9756 H   0  0  0  0  0  0  0  0  0  0  0  0
   23.9359    6.9524    9.1237 H   0  0  0  0  0  0  0  0  0  0  0  0
   25.0715    5.9326   10.0132 H   0  0  0  0  0  0  0  0  0  0  0  0
   23.3347    5.5803   10.1353 H   0  0  0  0  0  0  0  0  0  0  0  0
   23.2772    5.1809    6.2984 H   0  0  0  0  0  0  0  0  0  0  0  0
   24.8168    6.0761    6.3407 H   0  0  0  0  0  0  0  0  0  0  0  0
   23.3802    6.7296    7.2027 H   0  0  0  0  0  0  0  0  0  0  0  0
   23.7990    3.4268    6.9859 H   0  0  0  0  0  0  0  0  0  0  0  0
   21.7416    4.4950    7.4691 H   0  0  0  0  0  0  0  0  0  0  0  0
   21.8932    4.2547    9.1968 H   0  0  0  0  0  0  0  0  0  0  0  0
   20.6387    2.5553    7.3419 H   0  0  0  0  0  0  0  0  0  0  0  0
   20.9889    2.2922    9.1346 H   0  0  0  0  0  0  0  0  0  0  0  0
   20.8494   -0.0950    7.3364 H   0  0  0  0  0  0  0  0  0  0  0  0
   21.6187    0.6779    5.9039 H   0  0  0  0  0  0  0  0  0  0  0  0
   22.5202   -0.5719    6.8221 H   0  0  0  0  0  0  0  0  0  0  0  0
   24.2808    0.5227    7.8496 H   0  0  0  0  0  0  0  0  0  0  0  0
   23.8700    2.5099    9.9049 H   0  0  0  0  0  0  0  0  0  0  0  0
  1  2  1  0
  2  3  1  0
  3  4  1  0
  4  5  1  0
  5  6  1  0
  6  7  2  0
  7  8  1  0
  8  9  1  0
  8 10  2  0
 10 11  1  0
 11 12  2  0
 11 13  1  0
 13 14  1  0
 14 15  1  0
 14 16  1  0
 14 17  1  0
 17 18  1  0
 18 19  1  0
 19 20  1  0
 20 21  1  0
 20 22  2  0
 22 23  1  0
 12  6  1  0
 23 17  1  0
 23 10  1  0
  1 24  1  0
  1 25  1  0
  1 26  1  0
  2 27  1  0
  2 28  1  0
  3 29  1  0
  3 30  1  0
  4 31  1  0
  4 32  1  0
  5 33  1  0
  5 34  1  0
  7 35  1  0
  9 36  1  0
 12 37  1  0
 15 38  1  0
 15 39  1  0
 15 40  1  0
 16 41  1  0
 16 42  1  0
 16 43  1  0
 17 44  1  6
 18 45  1  0
 18 46  1  0
 19 47  1  0
 19 48  1  0
 21 49  1  0
 21 50  1  0
 21 51  1  0
 22 52  1  0
 23 53  1  1
M  END
$$$$
