
     RDKit          3D

 68 70  0  0  0  0  0  0  0  0999 V2000
   33.7695   -0.1003    3.2220 C   0  0  0  0  0  0  0  0  0  0  0  0
   34.1263    1.2961    2.8232 C   0  0  0  0  0  0  0  0  0  0  0  0
   33.4963    2.3722    3.6242 C   0  0  0  0  0  0  0  0  0  0  0  0
   31.9866    2.5777    3.5329 C   0  0  0  0  0  0  0  0  0  0  0  0
   31.1293    1.4366    3.7818 C   0  0  0  0  0  0  0  0  0  0  0  0
   29.6784    1.6311    3.8870 C   0  0  0  0  0  0  0  0  0  0  0  0
   28.8930    2.2576    2.8412 C   0  0  0  0  0  0  0  0  0  0  0  0
   28.9463    1.7197    1.4391 C   0  0  0  0  0  0  0  0  0  0  0  0
   28.9447    3.7533    2.8776 C   0  0  0  0  0  0  0  0  0  0  0  0
   27.3829    1.9540    3.2012 C   0  0  0  0  0  0  0  0  0  0  0  0
   27.1017    0.6180    3.3764 C   0  0  0  0  0  0  0  0  0  0  0  0
   25.7730    0.2556    3.6838 C   0  0  0  0  0  0  0  0  0  0  0  0
   25.5622   -1.1614    3.9951 C   0  0  0  0  0  0  0  0  0  0  0  0
   24.8724    1.2673    3.7796 C   0  0  0  0  0  0  0  0  0  0  0  0
   25.1465    2.5988    3.6361 C   0  0  0  0  0  0  0  0  0  0  0  0
   26.4581    2.9589    3.3142 C   0  0  0  0  0  0  0  0  0  0  0  0
   24.2272    3.6689    3.8459 O   0  0  0  0  0  0  0  0  0  0  0  0
   22.9092    3.2989    4.3726 C   0  0  0  0  0  0  0  0  0  0  0  0
   23.0974    3.0184    5.8557 C   0  0  0  0  0  0  0  0  0  0  0  0
   21.9885    4.4582    4.1151 C   0  0  0  0  0  0  0  0  0  0  0  0
   22.5434    2.1015    3.6113 C   0  0  2  0  0  0  0  0  0  0  0  0
   21.1261    1.6049    4.0571 C   0  0  0  0  0  0  0  0  0  0  0  0
   20.8188    0.3933    3.2608 C   0  0  0  0  0  0  0  0  0  0  0  0
   21.6717   -0.3807    2.6523 C   0  0  0  0  0  0  0  0  0  0  0  0
   21.1807   -1.5907    1.8775 C   0  0  0  0  0  0  0  0  0  0  0  0
   19.8225   -1.7249    1.9279 O   0  0  0  0  0  0  0  0  0  0  0  0
   23.1042    0.0062    2.6707 C   0  0  0  0  0  0  0  0  0  0  0  0
   23.4090    0.8810    3.8848 C   0  0  1  0  0  0  0  0  0  0  0  0
   33.6089   -0.1525    4.3296 H   0  0  0  0  0  0  0  0  0  0  0  0
   33.0120   -0.6201    2.6414 H   0  0  0  0  0  0  0  0  0  0  0  0
   34.6916   -0.7797    3.1348 H   0  0  0  0  0  0  0  0  0  0  0  0
   35.2540    1.3593    2.9538 H   0  0  0  0  0  0  0  0  0  0  0  0
   33.9367    1.4207    1.7099 H   0  0  0  0  0  0  0  0  0  0  0  0
   33.7559    2.1748    4.7045 H   0  0  0  0  0  0  0  0  0  0  0  0
   34.0061    3.3650    3.4070 H   0  0  0  0  0  0  0  0  0  0  0  0
   31.7875    3.4423    4.1944 H   0  0  0  0  0  0  0  0  0  0  0  0
   31.8342    3.0203    2.4682 H   0  0  0  0  0  0  0  0  0  0  0  0
   31.4896    0.7775    4.6426 H   0  0  0  0  0  0  0  0  0  0  0  0
   31.2820    0.7405    2.8690 H   0  0  0  0  0  0  0  0  0  0  0  0
   29.2275    0.6489    4.2410 H   0  0  0  0  0  0  0  0  0  0  0  0
   29.4772    2.2649    4.8402 H   0  0  0  0  0  0  0  0  0  0  0  0
   29.3042    0.6978    1.3095 H   0  0  0  0  0  0  0  0  0  0  0  0
   29.5462    2.4674    0.8131 H   0  0  0  0  0  0  0  0  0  0  0  0
   27.9444    1.7663    0.9382 H   0  0  0  0  0  0  0  0  0  0  0  0
   28.4027    4.2046    1.9841 H   0  0  0  0  0  0  0  0  0  0  0  0
   29.9573    4.1255    2.8578 H   0  0  0  0  0  0  0  0  0  0  0  0
   28.4749    4.1240    3.8552 H   0  0  0  0  0  0  0  0  0  0  0  0
   27.7801   -0.1926    3.2843 H   0  0  0  0  0  0  0  0  0  0  0  0
   25.6248   -1.8530    3.1679 H   0  0  0  0  0  0  0  0  0  0  0  0
   26.4636   -1.4659    4.6624 H   0  0  0  0  0  0  0  0  0  0  0  0
   24.6960   -1.3587    4.7107 H   0  0  0  0  0  0  0  0  0  0  0  0
   26.6551    4.0289    3.1600 H   0  0  0  0  0  0  0  0  0  0  0  0
   24.1946    2.8109    5.9864 H   0  0  0  0  0  0  0  0  0  0  0  0
   22.8614    3.8913    6.4744 H   0  0  0  0  0  0  0  0  0  0  0  0
   22.6058    2.1338    6.2458 H   0  0  0  0  0  0  0  0  0  0  0  0
   21.0540    4.4409    4.7077 H   0  0  0  0  0  0  0  0  0  0  0  0
   22.4950    5.4133    4.2771 H   0  0  0  0  0  0  0  0  0  0  0  0
   21.6808    4.4069    3.0203 H   0  0  0  0  0  0  0  0  0  0  0  0
   22.4155    2.2790    2.5531 H   0  0  0  0  0  0  0  0  0  0  0  0
   21.2547    1.2385    5.1300 H   0  0  0  0  0  0  0  0  0  0  0  0
   20.4011    2.4079    4.0164 H   0  0  0  0  0  0  0  0  0  0  0  0
   19.7700    0.1157    3.1813 H   0  0  0  0  0  0  0  0  0  0  0  0
   21.7852   -2.4695    2.1560 H   0  0  0  0  0  0  0  0  0  0  0  0
   21.4919   -1.4011    0.8045 H   0  0  0  0  0  0  0  0  0  0  0  0
   19.4127   -1.3248    1.1119 H   0  0  0  0  0  0  0  0  0  0  0  0
   23.6365   -0.9754    2.6835 H   0  0  0  0  0  0  0  0  0  0  0  0
   23.4210    0.5155    1.7149 H   0  0  0  0  0  0  0  0  0  0  0  0
   23.2135    0.4203    4.7844 H   0  0  0  0  0  0  0  0  0  0  0  0
  1  2  1  0
  2  3  1  0
  3  4  1  0
  4  5  1  0
  5  6  1  0
  6  7  1  0
  7  8  1  0
  7  9  1  0
  7 10  1  0
 10 11  2  0
 11 12  1  0
 12 13  1  0
 12 14  2  0
 14 15  1  0
 15 16  2  0
 15 17  1  0
 17 18  1  0
 18 19  1  0
 18 20  1  0
 18 21  1  0
 21 22  1  0
 22 23  1  0
 23 24  2  0
 24 25  1  0
 25 26  1  0
 24 27  1  0
 27 28  1  0
 16 10  1  0
 28 21  1  0
 28 14  1  0
  1 29  1  0
  1 30  1  0
  1 31  1  0
  2 32  1  0
  2 33  1  0
  3 34  1  0
  3 35  1  0
  4 36  1  0
  4 37  1  0
  5 38  1  0
  5 39  1  0
  6 40  1  0
  6 41  1  0
  8 42  1  0
  8 43  1  0
  8 44  1  0
  9 45  1  0
  9 46  1  0
  9 47  1  0
 11 48  1  0
 13 49  1  0
 13 50  1  0
 13 51  1  0
 16 52  1  0
 19 53  1  0
 19 54  1  0
 19 55  1  0
 20 56  1  0
 20 57  1  0
 20 58  1  0
 21 59  1  6
 22 60  1  0
 22 61  1  0
 23 62  1  0
 25 63  1  0
 25 64  1  0
 26 65  1  0
 27 66  1  0
 27 67  1  0
 28 68  1  1
M  END
$$$$
