
     RDKit          3D

 68 70  0  0  0  0  0  0  0  0999 V2000
   34.2240   -0.1840    3.7604 C   0  0  0  0  0  0  0  0  0  0  0  0
   33.0507    0.5924    3.2209 C   0  0  0  0  0  0  0  0  0  0  0  0
   33.1405    2.0833    3.4708 C   0  0  0  0  0  0  0  0  0  0  0  0
   31.7921    2.6794    2.8911 C   0  0  0  0  0  0  0  0  0  0  0  0
   30.6939    2.2612    3.8004 C   0  0  0  0  0  0  0  0  0  0  0  0
   29.3271    2.4206    3.3180 C   0  0  0  0  0  0  0  0  0  0  0  0
   28.6686    3.6719    2.9053 C   0  0  0  0  0  0  0  0  0  0  0  0
   28.6373    4.7421    3.9773 C   0  0  0  0  0  0  0  0  0  0  0  0
   29.0910    4.2478    1.6069 C   0  0  0  0  0  0  0  0  0  0  0  0
   27.2104    3.1749    2.7484 C   0  0  0  0  0  0  0  0  0  0  0  0
   26.9887    1.9111    2.2654 C   0  0  0  0  0  0  0  0  0  0  0  0
   25.7094    1.3393    2.3787 C   0  0  0  0  0  0  0  0  0  0  0  0
   25.5224    0.0366    1.7268 C   0  0  0  0  0  0  0  0  0  0  0  0
   24.6593    1.9859    2.9598 C   0  0  0  0  0  0  0  0  0  0  0  0
   24.9083    3.2976    3.4477 C   0  0  0  0  0  0  0  0  0  0  0  0
   26.1882    3.8405    3.3147 C   0  0  0  0  0  0  0  0  0  0  0  0
   23.9977    4.1117    4.0980 O   0  0  0  0  0  0  0  0  0  0  0  0
   22.6953    3.6237    4.3875 C   0  0  0  0  0  0  0  0  0  0  0  0
   22.4033    3.7181    5.8257 C   0  0  0  0  0  0  0  0  0  0  0  0
   21.8460    4.7892    3.7615 C   0  0  0  0  0  0  0  0  0  0  0  0
   22.3961    2.4366    3.6235 C   0  0  2  0  0  0  0  0  0  0  0  0
   21.0553    1.9189    4.1286 C   0  0  0  0  0  0  0  0  0  0  0  0
   20.6812    0.6405    3.6605 C   0  0  0  0  0  0  0  0  0  0  0  0
   21.4887   -0.1641    2.9963 C   0  0  0  0  0  0  0  0  0  0  0  0
   21.0342   -1.5062    2.5667 C   0  0  0  0  0  0  0  0  0  0  0  0
   19.7182   -1.7641    2.9712 O   0  0  0  0  0  0  0  0  0  0  0  0
   22.8178    0.3219    2.5153 C   0  0  0  0  0  0  0  0  0  0  0  0
   23.3816    1.3404    3.4293 C   0  0  1  0  0  0  0  0  0  0  0  0
   34.3212    0.0550    4.8206 H   0  0  0  0  0  0  0  0  0  0  0  0
   33.9604   -1.3009    3.7006 H   0  0  0  0  0  0  0  0  0  0  0  0
   35.0993    0.0161    3.1323 H   0  0  0  0  0  0  0  0  0  0  0  0
   32.1198    0.1290    3.5430 H   0  0  0  0  0  0  0  0  0  0  0  0
   33.1032    0.4257    2.1046 H   0  0  0  0  0  0  0  0  0  0  0  0
   33.0497    2.2585    4.5641 H   0  0  0  0  0  0  0  0  0  0  0  0
   33.9496    2.5928    2.9912 H   0  0  0  0  0  0  0  0  0  0  0  0
   31.7420    2.2162    1.8856 H   0  0  0  0  0  0  0  0  0  0  0  0
   31.9482    3.7369    2.7710 H   0  0  0  0  0  0  0  0  0  0  0  0
   30.8116    1.1681    4.0951 H   0  0  0  0  0  0  0  0  0  0  0  0
   30.8392    2.7605    4.8434 H   0  0  0  0  0  0  0  0  0  0  0  0
   28.6234    1.8150    4.0301 H   0  0  0  0  0  0  0  0  0  0  0  0
   29.2932    1.7023    2.4140 H   0  0  0  0  0  0  0  0  0  0  0  0
   28.1922    5.6497    3.5159 H   0  0  0  0  0  0  0  0  0  0  0  0
   29.6602    4.9668    4.2309 H   0  0  0  0  0  0  0  0  0  0  0  0
   27.9847    4.4147    4.8194 H   0  0  0  0  0  0  0  0  0  0  0  0
   29.8343    3.5604    1.1048 H   0  0  0  0  0  0  0  0  0  0  0  0
   28.3122    4.4103    0.8302 H   0  0  0  0  0  0  0  0  0  0  0  0
   29.5634    5.2651    1.7125 H   0  0  0  0  0  0  0  0  0  0  0  0
   27.7263    1.3371    1.7744 H   0  0  0  0  0  0  0  0  0  0  0  0
   26.4262   -0.0711    0.9796 H   0  0  0  0  0  0  0  0  0  0  0  0
   24.7211   -0.0087    0.9642 H   0  0  0  0  0  0  0  0  0  0  0  0
   25.7144   -0.8691    2.3026 H   0  0  0  0  0  0  0  0  0  0  0  0
   26.3672    4.8218    3.7177 H   0  0  0  0  0  0  0  0  0  0  0  0
   22.9609    4.5889    6.2982 H   0  0  0  0  0  0  0  0  0  0  0  0
   21.3439    3.9690    6.0757 H   0  0  0  0  0  0  0  0  0  0  0  0
   22.7412    2.8583    6.4486 H   0  0  0  0  0  0  0  0  0  0  0  0
   22.1679    5.6835    4.2903 H   0  0  0  0  0  0  0  0  0  0  0  0
   22.1679    4.8669    2.7051 H   0  0  0  0  0  0  0  0  0  0  0  0
   20.7750    4.5882    3.8737 H   0  0  0  0  0  0  0  0  0  0  0  0
   22.1607    2.7703    2.5585 H   0  0  0  0  0  0  0  0  0  0  0  0
   20.2910    2.6670    3.7168 H   0  0  0  0  0  0  0  0  0  0  0  0
   20.9442    1.9806    5.2132 H   0  0  0  0  0  0  0  0  0  0  0  0
   19.6563    0.2249    3.9008 H   0  0  0  0  0  0  0  0  0  0  0  0
   21.7408   -2.2949    2.9414 H   0  0  0  0  0  0  0  0  0  0  0  0
   21.0150   -1.5116    1.4573 H   0  0  0  0  0  0  0  0  0  0  0  0
   19.5665   -2.7404    2.9239 H   0  0  0  0  0  0  0  0  0  0  0  0
   22.5920    0.6880    1.4773 H   0  0  0  0  0  0  0  0  0  0  0  0
   23.3679   -0.6379    2.5377 H   0  0  0  0  0  0  0  0  0  0  0  0
   23.5904    0.8357    4.3716 H   0  0  0  0  0  0  0  0  0  0  0  0
  1  2  1  0
  2  3  1  0
  3  4  1  0
  4  5  1  0
  5  6  1  0
  6  7  1  0
  7  8  1  0
  7  9  1  0
  7 10  1  0
 10 11  2  0
 11 12  1  0
 12 13  1  0
 12 14  2  0
 14 15  1  0
 15 16  2  0
 15 17  1  0
 17 18  1  0
 18 19  1  0
 18 20  1  0
 18 21  1  0
 21 22  1  0
 22 23  1  0
 23 24  2  0
 24 25  1  0
 25 26  1  0
 24 27  1  0
 27 28  1  0
 16 10  1  0
 28 21  1  0
 28 14  1  0
  1 29  1  0
  1 30  1  0
  1 31  1  0
  2 32  1  0
  2 33  1  0
  3 34  1  0
  3 35  1  0
  4 36  1  0
  4 37  1  0
  5 38  1  0
  5 39  1  0
  6 40  1  0
  6 41  1  0
  8 42  1  0
  8 43  1  0
  8 44  1  0
  9 45  1  0
  9 46  1  0
  9 47  1  0
 11 48  1  0
 13 49  1  0
 13 50  1  0
 13 51  1  0
 16 52  1  0
 19 53  1  0
 19 54  1  0
 19 55  1  0
 20 56  1  0
 20 57  1  0
 20 58  1  0
 21 59  1  6
 22 60  1  0
 22 61  1  0
 23 62  1  0
 25 63  1  0
 25 64  1  0
 26 65  1  0
 27 66  1  0
 27 67  1  0
 28 68  1  1
M  END
$$$$
