
     RDKit          3D

 68 70  0  0  0  0  0  0  0  0999 V2000
   33.1400   -0.3074    1.5879 C   0  0  0  0  0  0  0  0  0  0  0  0
   34.0056    0.5106    2.5550 C   0  0  0  0  0  0  0  0  0  0  0  0
   33.1079    1.0734    3.6522 C   0  0  0  0  0  0  0  0  0  0  0  0
   32.2196    2.0966    3.0931 C   0  0  0  0  0  0  0  0  0  0  0  0
   31.1213    2.7297    3.8689 C   0  0  0  0  0  0  0  0  0  0  0  0
   29.8691    1.9444    4.1439 C   0  0  0  0  0  0  0  0  0  0  0  0
   28.7868    2.9590    4.5204 C   0  0  0  0  0  0  0  0  0  0  0  0
   29.1778    3.7596    5.6936 C   0  0  0  0  0  0  0  0  0  0  0  0
   28.7641    3.8516    3.2150 C   0  0  0  0  0  0  0  0  0  0  0  0
   27.4442    2.4210    4.5822 C   0  0  0  0  0  0  0  0  0  0  0  0
   27.0374    1.1430    4.8609 C   0  0  0  0  0  0  0  0  0  0  0  0
   25.7098    0.6803    4.8028 C   0  0  0  0  0  0  0  0  0  0  0  0
   25.5118   -0.6947    5.2493 C   0  0  0  0  0  0  0  0  0  0  0  0
   24.7606    1.5793    4.4350 C   0  0  0  0  0  0  0  0  0  0  0  0
   25.0752    2.9174    4.1540 C   0  0  0  0  0  0  0  0  0  0  0  0
   26.3976    3.2937    4.2284 C   0  0  0  0  0  0  0  0  0  0  0  0
   24.1706    3.9134    3.8488 O   0  0  0  0  0  0  0  0  0  0  0  0
   22.7431    3.5833    3.8901 C   0  0  0  0  0  0  0  0  0  0  0  0
   22.1046    4.5022    2.8536 C   0  0  0  0  0  0  0  0  0  0  0  0
   22.1979    3.8452    5.2417 C   0  0  0  0  0  0  0  0  0  0  0  0
   22.6219    2.1847    3.4400 C   0  0  2  0  0  0  0  0  0  0  0  0
   21.1023    1.8677    3.5125 C   0  0  0  0  0  0  0  0  0  0  0  0
   20.9185    0.4834    3.0793 C   0  0  0  0  0  0  0  0  0  0  0  0
   21.8179   -0.4903    3.1542 C   0  0  0  0  0  0  0  0  0  0  0  0
   21.5667   -1.8787    2.7068 C   0  0  0  0  0  0  0  0  0  0  0  0
   22.4498   -2.2205    1.7245 O   0  0  0  0  0  0  0  0  0  0  0  0
   23.2211   -0.1639    3.5190 C   0  0  0  0  0  0  0  0  0  0  0  0
   23.3734    1.1451    4.2533 C   0  0  1  0  0  0  0  0  0  0  0  0
   33.8587   -0.6573    0.8098 H   0  0  0  0  0  0  0  0  0  0  0  0
   32.4107    0.3300    1.1164 H   0  0  0  0  0  0  0  0  0  0  0  0
   32.7170   -1.1872    2.1476 H   0  0  0  0  0  0  0  0  0  0  0  0
   34.4199    1.3312    1.8903 H   0  0  0  0  0  0  0  0  0  0  0  0
   34.7567   -0.1368    2.9920 H   0  0  0  0  0  0  0  0  0  0  0  0
   33.8739    1.5838    4.3364 H   0  0  0  0  0  0  0  0  0  0  0  0
   32.6913    0.2410    4.1804 H   0  0  0  0  0  0  0  0  0  0  0  0
   31.7432    1.7441    2.1257 H   0  0  0  0  0  0  0  0  0  0  0  0
   32.8904    2.9287    2.6659 H   0  0  0  0  0  0  0  0  0  0  0  0
   31.0643    3.8027    3.7658 H   0  0  0  0  0  0  0  0  0  0  0  0
   31.6869    2.7309    4.9750 H   0  0  0  0  0  0  0  0  0  0  0  0
   30.0375    1.2602    4.9913 H   0  0  0  0  0  0  0  0  0  0  0  0
   29.6008    1.4015    3.2184 H   0  0  0  0  0  0  0  0  0  0  0  0
   30.0685    3.3117    6.1723 H   0  0  0  0  0  0  0  0  0  0  0  0
   29.4499    4.8285    5.4674 H   0  0  0  0  0  0  0  0  0  0  0  0
   28.3481    3.7483    6.4677 H   0  0  0  0  0  0  0  0  0  0  0  0
   28.3275    4.8313    3.3723 H   0  0  0  0  0  0  0  0  0  0  0  0
   29.7469    3.8865    2.7291 H   0  0  0  0  0  0  0  0  0  0  0  0
   28.1213    3.2670    2.4634 H   0  0  0  0  0  0  0  0  0  0  0  0
   27.8506    0.4517    5.1345 H   0  0  0  0  0  0  0  0  0  0  0  0
   26.4538   -1.0328    5.8142 H   0  0  0  0  0  0  0  0  0  0  0  0
   24.7571   -0.8109    6.0543 H   0  0  0  0  0  0  0  0  0  0  0  0
   25.4870   -1.4326    4.4232 H   0  0  0  0  0  0  0  0  0  0  0  0
   26.5912    4.3360    3.9409 H   0  0  0  0  0  0  0  0  0  0  0  0
   22.5482    5.5388    2.9649 H   0  0  0  0  0  0  0  0  0  0  0  0
   22.4901    4.1423    1.8529 H   0  0  0  0  0  0  0  0  0  0  0  0
   21.0156    4.5389    2.8643 H   0  0  0  0  0  0  0  0  0  0  0  0
   21.0849    3.8066    5.2226 H   0  0  0  0  0  0  0  0  0  0  0  0
   22.4728    4.8897    5.5775 H   0  0  0  0  0  0  0  0  0  0  0  0
   22.5396    3.1030    5.9558 H   0  0  0  0  0  0  0  0  0  0  0  0
   22.9132    2.0950    2.3737 H   0  0  0  0  0  0  0  0  0  0  0  0
   20.6363    2.5724    2.8496 H   0  0  0  0  0  0  0  0  0  0  0  0
   20.7949    1.9217    4.5815 H   0  0  0  0  0  0  0  0  0  0  0  0
   19.9085    0.2058    2.7200 H   0  0  0  0  0  0  0  0  0  0  0  0
   20.5010   -1.9670    2.3138 H   0  0  0  0  0  0  0  0  0  0  0  0
   21.6679   -2.5944    3.5483 H   0  0  0  0  0  0  0  0  0  0  0  0
   23.3920   -2.2848    2.0874 H   0  0  0  0  0  0  0  0  0  0  0  0
   23.3352   -0.9495    4.3547 H   0  0  0  0  0  0  0  0  0  0  0  0
   23.8904   -0.2454    2.7126 H   0  0  0  0  0  0  0  0  0  0  0  0
   22.9194    1.0965    5.3022 H   0  0  0  0  0  0  0  0  0  0  0  0
  1  2  1  0
  2  3  1  0
  3  4  1  0
  4  5  1  0
  5  6  1  0
  6  7  1  0
  7  8  1  0
  7  9  1  0
  7 10  1  0
 10 11  2  0
 11 12  1  0
 12 13  1  0
 12 14  2  0
 14 15  1  0
 15 16  2  0
 15 17  1  0
 17 18  1  0
 18 19  1  0
 18 20  1  0
 18 21  1  0
 21 22  1  0
 22 23  1  0
 23 24  2  0
 24 25  1  0
 25 26  1  0
 24 27  1  0
 27 28  1  0
 16 10  1  0
 28 21  1  0
 28 14  1  0
  1 29  1  0
  1 30  1  0
  1 31  1  0
  2 32  1  0
  2 33  1  0
  3 34  1  0
  3 35  1  0
  4 36  1  0
  4 37  1  0
  5 38  1  0
  5 39  1  0
  6 40  1  0
  6 41  1  0
  8 42  1  0
  8 43  1  0
  8 44  1  0
  9 45  1  0
  9 46  1  0
  9 47  1  0
 11 48  1  0
 13 49  1  0
 13 50  1  0
 13 51  1  0
 16 52  1  0
 19 53  1  0
 19 54  1  0
 19 55  1  0
 20 56  1  0
 20 57  1  0
 20 58  1  0
 21 59  1  6
 22 60  1  0
 22 61  1  0
 23 62  1  0
 25 63  1  0
 25 64  1  0
 26 65  1  0
 27 66  1  0
 27 67  1  0
 28 68  1  1
M  END
$$$$
