
     RDKit          3D

 68 70  0  0  0  0  0  0  0  0999 V2000
   34.0671   -0.6108    2.0142 C   0  0  0  0  0  0  0  0  0  0  0  0
   33.7051    0.3800    3.1402 C   0  0  0  0  0  0  0  0  0  0  0  0
   32.2426    0.6810    2.9865 C   0  0  0  0  0  0  0  0  0  0  0  0
   31.7066    1.6840    3.9639 C   0  0  0  0  0  0  0  0  0  0  0  0
   30.2173    1.9025    3.5968 C   0  0  0  0  0  0  0  0  0  0  0  0
   29.6272    2.9524    4.4717 C   0  0  0  0  0  0  0  0  0  0  0  0
   28.2998    3.4871    4.2115 C   0  0  0  0  0  0  0  0  0  0  0  0
   28.1103    4.6254    5.2716 C   0  0  0  0  0  0  0  0  0  0  0  0
   28.2591    4.2054    2.8494 C   0  0  0  0  0  0  0  0  0  0  0  0
   27.0736    2.6866    4.2389 C   0  0  0  0  0  0  0  0  0  0  0  0
   26.8674    1.3760    4.4232 C   0  0  0  0  0  0  0  0  0  0  0  0
   25.5674    0.8218    4.4389 C   0  0  0  0  0  0  0  0  0  0  0  0
   25.5109   -0.6233    4.7244 C   0  0  0  0  0  0  0  0  0  0  0  0
   24.4680    1.6065    4.2627 C   0  0  0  0  0  0  0  0  0  0  0  0
   24.6460    2.9560    4.0919 C   0  0  0  0  0  0  0  0  0  0  0  0
   25.9022    3.4943    4.0711 C   0  0  0  0  0  0  0  0  0  0  0  0
   23.6165    3.9234    4.0037 O   0  0  0  0  0  0  0  0  0  0  0  0
   22.2355    3.5297    4.2058 C   0  0  0  0  0  0  0  0  0  0  0  0
   21.8540    3.6463    5.6459 C   0  0  0  0  0  0  0  0  0  0  0  0
   21.4564    4.4991    3.3479 C   0  0  0  0  0  0  0  0  0  0  0  0
   22.1560    2.1811    3.6477 C   0  0  2  0  0  0  0  0  0  0  0  0
   20.6961    1.7049    3.8668 C   0  0  0  0  0  0  0  0  0  0  0  0
   20.5248    0.3471    3.3767 C   0  0  0  0  0  0  0  0  0  0  0  0
   21.5379   -0.4253    3.0704 C   0  0  0  0  0  0  0  0  0  0  0  0
   21.2434   -1.7918    2.5803 C   0  0  0  0  0  0  0  0  0  0  0  0
   19.8563   -1.9788    2.5494 O   0  0  0  0  0  0  0  0  0  0  0  0
   22.9430    0.0214    3.1281 C   0  0  0  0  0  0  0  0  0  0  0  0
   23.0519    1.1145    4.2143 C   0  0  1  0  0  0  0  0  0  0  0  0
   35.1706   -0.8209    2.0553 H   0  0  0  0  0  0  0  0  0  0  0  0
   33.4832   -1.5246    2.2197 H   0  0  0  0  0  0  0  0  0  0  0  0
   33.7667   -0.1369    1.0698 H   0  0  0  0  0  0  0  0  0  0  0  0
   33.8684   -0.1155    4.0975 H   0  0  0  0  0  0  0  0  0  0  0  0
   34.2754    1.3069    3.0131 H   0  0  0  0  0  0  0  0  0  0  0  0
   32.0991    1.1030    1.9704 H   0  0  0  0  0  0  0  0  0  0  0  0
   31.6783   -0.2818    3.1349 H   0  0  0  0  0  0  0  0  0  0  0  0
   31.7935    1.2541    4.9750 H   0  0  0  0  0  0  0  0  0  0  0  0
   32.1872    2.6750    3.8938 H   0  0  0  0  0  0  0  0  0  0  0  0
   30.0987    2.0404    2.5098 H   0  0  0  0  0  0  0  0  0  0  0  0
   29.7587    0.9189    3.8327 H   0  0  0  0  0  0  0  0  0  0  0  0
   30.4086    3.7587    4.5965 H   0  0  0  0  0  0  0  0  0  0  0  0
   29.6066    2.5456    5.5673 H   0  0  0  0  0  0  0  0  0  0  0  0
   29.0039    4.7958    5.8515 H   0  0  0  0  0  0  0  0  0  0  0  0
   27.3135    4.3209    5.9635 H   0  0  0  0  0  0  0  0  0  0  0  0
   27.8074    5.5554    4.7769 H   0  0  0  0  0  0  0  0  0  0  0  0
   29.2420    4.6423    2.6456 H   0  0  0  0  0  0  0  0  0  0  0  0
   27.9436    3.4385    2.1235 H   0  0  0  0  0  0  0  0  0  0  0  0
   27.5082    4.9849    2.8858 H   0  0  0  0  0  0  0  0  0  0  0  0
   27.7083    0.7318    4.5886 H   0  0  0  0  0  0  0  0  0  0  0  0
   26.3593   -0.8604    5.4760 H   0  0  0  0  0  0  0  0  0  0  0  0
   25.8117   -1.1963    3.8471 H   0  0  0  0  0  0  0  0  0  0  0  0
   24.6180   -0.9527    5.2616 H   0  0  0  0  0  0  0  0  0  0  0  0
   26.0037    4.5660    3.9408 H   0  0  0  0  0  0  0  0  0  0  0  0
   22.2166    2.7702    6.2081 H   0  0  0  0  0  0  0  0  0  0  0  0
   20.7431    3.7370    5.6831 H   0  0  0  0  0  0  0  0  0  0  0  0
   22.2675    4.5868    6.0568 H   0  0  0  0  0  0  0  0  0  0  0  0
   21.9229    5.4969    3.2871 H   0  0  0  0  0  0  0  0  0  0  0  0
   21.4130    4.0462    2.3082 H   0  0  0  0  0  0  0  0  0  0  0  0
   20.4116    4.5346    3.6791 H   0  0  0  0  0  0  0  0  0  0  0  0
   22.3049    2.2307    2.5661 H   0  0  0  0  0  0  0  0  0  0  0  0
   20.4590    1.7825    4.9556 H   0  0  0  0  0  0  0  0  0  0  0  0
   20.0859    2.4267    3.2543 H   0  0  0  0  0  0  0  0  0  0  0  0
   19.5101   -0.0398    3.2741 H   0  0  0  0  0  0  0  0  0  0  0  0
   21.6303   -2.6112    3.2214 H   0  0  0  0  0  0  0  0  0  0  0  0
   21.5794   -1.9390    1.5162 H   0  0  0  0  0  0  0  0  0  0  0  0
   19.4947   -2.1669    3.4453 H   0  0  0  0  0  0  0  0  0  0  0  0
   23.6200   -0.7957    3.2182 H   0  0  0  0  0  0  0  0  0  0  0  0
   23.1102    0.5296    2.1197 H   0  0  0  0  0  0  0  0  0  0  0  0
   22.7459    0.7498    5.1625 H   0  0  0  0  0  0  0  0  0  0  0  0
  1  2  1  0
  2  3  1  0
  3  4  1  0
  4  5  1  0
  5  6  1  0
  6  7  1  0
  7  8  1  0
  7  9  1  0
  7 10  1  0
 10 11  2  0
 11 12  1  0
 12 13  1  0
 12 14  2  0
 14 15  1  0
 15 16  2  0
 15 17  1  0
 17 18  1  0
 18 19  1  0
 18 20  1  0
 18 21  1  0
 21 22  1  0
 22 23  1  0
 23 24  2  0
 24 25  1  0
 25 26  1  0
 24 27  1  0
 27 28  1  0
 16 10  1  0
 28 21  1  0
 28 14  1  0
  1 29  1  0
  1 30  1  0
  1 31  1  0
  2 32  1  0
  2 33  1  0
  3 34  1  0
  3 35  1  0
  4 36  1  0
  4 37  1  0
  5 38  1  0
  5 39  1  0
  6 40  1  0
  6 41  1  0
  8 42  1  0
  8 43  1  0
  8 44  1  0
  9 45  1  0
  9 46  1  0
  9 47  1  0
 11 48  1  0
 13 49  1  0
 13 50  1  0
 13 51  1  0
 16 52  1  0
 19 53  1  0
 19 54  1  0
 19 55  1  0
 20 56  1  0
 20 57  1  0
 20 58  1  0
 21 59  1  6
 22 60  1  0
 22 61  1  0
 23 62  1  0
 25 63  1  0
 25 64  1  0
 26 65  1  0
 27 66  1  0
 27 67  1  0
 28 68  1  1
M  END
$$$$
