
     RDKit          3D

 68 70  0  0  0  0  0  0  0  0999 V2000
   34.5654    1.3826    3.7463 C   0  0  0  0  0  0  0  0  0  0  0  0
   33.8562    2.2144    4.7042 C   0  0  0  0  0  0  0  0  0  0  0  0
   32.9900    3.3289    4.2034 C   0  0  0  0  0  0  0  0  0  0  0  0
   31.8415    3.0109    3.2843 C   0  0  0  0  0  0  0  0  0  0  0  0
   30.9178    1.9817    3.8535 C   0  0  0  0  0  0  0  0  0  0  0  0
   29.6005    1.9069    3.1424 C   0  0  0  0  0  0  0  0  0  0  0  0
   28.7613    0.7566    3.7143 C   0  0  0  0  0  0  0  0  0  0  0  0
   28.7333    0.9768    5.2520 C   0  0  0  0  0  0  0  0  0  0  0  0
   29.3934   -0.5287    3.4072 C   0  0  0  0  0  0  0  0  0  0  0  0
   27.3169    0.8701    3.3433 C   0  0  0  0  0  0  0  0  0  0  0  0
   26.6847    0.1943    2.3752 C   0  0  0  0  0  0  0  0  0  0  0  0
   25.3445    0.2838    2.2241 C   0  0  0  0  0  0  0  0  0  0  0  0
   24.6775   -0.3886    1.0547 C   0  0  0  0  0  0  0  0  0  0  0  0
   24.4749    1.0478    3.0033 C   0  0  0  0  0  0  0  0  0  0  0  0
   25.1687    1.7587    4.0120 C   0  0  0  0  0  0  0  0  0  0  0  0
   26.5216    1.6617    4.1569 C   0  0  0  0  0  0  0  0  0  0  0  0
   24.4888    2.5628    4.9149 O   0  0  0  0  0  0  0  0  0  0  0  0
   23.0689    2.6740    4.8820 C   0  0  0  0  0  0  0  0  0  0  0  0
   22.7364    4.1794    5.1909 C   0  0  0  0  0  0  0  0  0  0  0  0
   22.5274    1.9432    6.0986 C   0  0  0  0  0  0  0  0  0  0  0  0
   22.5122    2.3359    3.5986 C   0  0  2  0  0  0  0  0  0  0  0  0
   21.1345    2.3182    3.1264 C   0  0  0  0  0  0  0  0  0  0  0  0
   20.3002    1.2630    3.7306 C   0  0  0  0  0  0  0  0  0  0  0  0
   20.8123    0.0682    3.3329 C   0  0  0  0  0  0  0  0  0  0  0  0
   20.2037   -1.2282    3.7536 C   0  0  0  0  0  0  0  0  0  0  0  0
   19.0973   -1.0201    4.5708 O   0  0  0  0  0  0  0  0  0  0  0  0
   22.1321    0.0377    2.5429 C   0  0  0  0  0  0  0  0  0  0  0  0
   23.0648    0.8801    3.1836 C   0  0  1  0  0  0  0  0  0  0  0  0
   34.7342    1.7726    2.7570 H   0  0  0  0  0  0  0  0  0  0  0  0
   34.0483    0.3545    3.6235 H   0  0  0  0  0  0  0  0  0  0  0  0
   35.5682    1.0372    4.1831 H   0  0  0  0  0  0  0  0  0  0  0  0
   33.2257    1.5496    5.3467 H   0  0  0  0  0  0  0  0  0  0  0  0
   34.5992    2.7278    5.4148 H   0  0  0  0  0  0  0  0  0  0  0  0
   33.6540    4.0352    3.6174 H   0  0  0  0  0  0  0  0  0  0  0  0
   32.6023    3.8928    5.1102 H   0  0  0  0  0  0  0  0  0  0  0  0
   31.2718    3.9520    3.0926 H   0  0  0  0  0  0  0  0  0  0  0  0
   32.2754    2.6877    2.3030 H   0  0  0  0  0  0  0  0  0  0  0  0
   30.7922    2.1573    4.9348 H   0  0  0  0  0  0  0  0  0  0  0  0
   31.4701    0.9909    3.7469 H   0  0  0  0  0  0  0  0  0  0  0  0
   29.8233    1.6393    2.0971 H   0  0  0  0  0  0  0  0  0  0  0  0
   29.0675    2.8686    3.1925 H   0  0  0  0  0  0  0  0  0  0  0  0
   27.8026    0.5114    5.6363 H   0  0  0  0  0  0  0  0  0  0  0  0
   28.8804    2.0183    5.5085 H   0  0  0  0  0  0  0  0  0  0  0  0
   29.5474    0.3533    5.6961 H   0  0  0  0  0  0  0  0  0  0  0  0
   30.4006   -0.4797    2.9378 H   0  0  0  0  0  0  0  0  0  0  0  0
   28.8109   -1.1447    2.6750 H   0  0  0  0  0  0  0  0  0  0  0  0
   29.4962   -1.2353    4.2928 H   0  0  0  0  0  0  0  0  0  0  0  0
   27.2426   -0.4597    1.6532 H   0  0  0  0  0  0  0  0  0  0  0  0
   24.4564   -1.4299    1.1868 H   0  0  0  0  0  0  0  0  0  0  0  0
   23.8841    0.2574    0.6199 H   0  0  0  0  0  0  0  0  0  0  0  0
   25.4495   -0.3717    0.2215 H   0  0  0  0  0  0  0  0  0  0  0  0
   26.9775    2.2391    4.9333 H   0  0  0  0  0  0  0  0  0  0  0  0
   21.6699    4.2522    5.1223 H   0  0  0  0  0  0  0  0  0  0  0  0
   23.0155    4.3133    6.2547 H   0  0  0  0  0  0  0  0  0  0  0  0
   23.3003    4.8268    4.5380 H   0  0  0  0  0  0  0  0  0  0  0  0
   21.4265    1.7984    6.0695 H   0  0  0  0  0  0  0  0  0  0  0  0
   22.7039    2.5545    7.0555 H   0  0  0  0  0  0  0  0  0  0  0  0
   22.9519    0.9344    6.2681 H   0  0  0  0  0  0  0  0  0  0  0  0
   23.1726    2.9370    2.8219 H   0  0  0  0  0  0  0  0  0  0  0  0
   20.5937    3.2918    3.1575 H   0  0  0  0  0  0  0  0  0  0  0  0
   21.1554    2.1102    2.0170 H   0  0  0  0  0  0  0  0  0  0  0  0
   19.4395    1.3801    4.3555 H   0  0  0  0  0  0  0  0  0  0  0  0
   20.9495   -1.7801    4.4178 H   0  0  0  0  0  0  0  0  0  0  0  0
   19.9531   -1.8823    2.9149 H   0  0  0  0  0  0  0  0  0  0  0  0
   19.4358   -0.7117    5.4727 H   0  0  0  0  0  0  0  0  0  0  0  0
   21.7094    0.2788    1.5482 H   0  0  0  0  0  0  0  0  0  0  0  0
   22.4843   -1.0372    2.5739 H   0  0  0  0  0  0  0  0  0  0  0  0
   23.0474    0.4376    4.3035 H   0  0  0  0  0  0  0  0  0  0  0  0
  1  2  1  0
  2  3  1  0
  3  4  1  0
  4  5  1  0
  5  6  1  0
  6  7  1  0
  7  8  1  0
  7  9  1  0
  7 10  1  0
 10 11  2  0
 11 12  1  0
 12 13  1  0
 12 14  2  0
 14 15  1  0
 15 16  2  0
 15 17  1  0
 17 18  1  0
 18 19  1  0
 18 20  1  0
 18 21  1  0
 21 22  1  0
 22 23  1  0
 23 24  2  0
 24 25  1  0
 25 26  1  0
 24 27  1  0
 27 28  1  0
 16 10  1  0
 28 21  1  0
 28 14  1  0
  1 29  1  0
  1 30  1  0
  1 31  1  0
  2 32  1  0
  2 33  1  0
  3 34  1  0
  3 35  1  0
  4 36  1  0
  4 37  1  0
  5 38  1  0
  5 39  1  0
  6 40  1  0
  6 41  1  0
  8 42  1  0
  8 43  1  0
  8 44  1  0
  9 45  1  0
  9 46  1  0
  9 47  1  0
 11 48  1  0
 13 49  1  0
 13 50  1  0
 13 51  1  0
 16 52  1  0
 19 53  1  0
 19 54  1  0
 19 55  1  0
 20 56  1  0
 20 57  1  0
 20 58  1  0
 21 59  1  6
 22 60  1  0
 22 61  1  0
 23 62  1  0
 25 63  1  0
 25 64  1  0
 26 65  1  0
 27 66  1  0
 27 67  1  0
 28 68  1  1
M  END
$$$$
