
     RDKit          3D

 54 57  0  0  0  0  0  0  0  0999 V2000
   29.3845    3.4563    6.8796 C   0  0  0  0  0  0  0  0  0  0  0  0
   29.2106    2.6063    5.7180 C   0  0  2  0  0  0  0  0  0  0  0  0
   29.8895    1.1938    6.0055 C   0  0  0  0  0  0  0  0  0  0  0  0
   31.3822    1.1588    5.9917 C   0  0  0  0  0  0  0  0  0  0  0  0
   31.8187    2.5539    5.9564 C   0  0  0  0  0  0  0  0  0  0  0  0
   32.5671    2.9435    6.8598 O   0  0  0  0  0  0  0  0  0  0  0  0
   31.3483    3.4007    4.8558 C   0  0  0  0  0  0  0  0  0  0  0  0
   29.9351    2.9889    4.4253 C   0  0  2  0  0  0  0  0  0  0  0  0
   29.2174    4.1208    3.7571 C   0  0  0  0  0  0  0  0  0  0  0  0
   27.8057    3.6874    3.4351 C   0  0  0  0  0  0  0  0  0  0  0  0
   27.0808    3.3246    4.6777 C   0  0  2  0  0  0  0  0  0  0  0  0
   27.7985    2.1608    5.3983 C   0  0  2  0  0  0  0  0  0  0  0  0
   27.1119    1.9339    6.7576 C   0  0  0  0  0  0  0  0  0  0  0  0
   25.6730    1.4246    6.5097 C   0  0  0  0  0  0  0  0  0  0  0  0
   25.0004    2.4902    5.6966 C   0  0  2  0  0  0  0  0  0  0  0  0
   24.7582    3.6994    6.6384 C   0  0  0  0  0  0  0  0  0  0  0  0
   23.6150    2.1559    5.1786 C   0  0  1  0  0  0  0  0  0  0  0  0
   22.6766    2.1305    6.1892 O   0  0  0  0  0  0  0  0  0  0  0  0
   23.3799    3.3549    4.2223 C   0  0  0  0  0  0  0  0  0  0  0  0
   24.7550    4.0306    4.0972 C   0  0  0  0  0  0  0  0  0  0  0  0
   25.6854    2.8521    4.4896 C   0  0  1  0  0  0  0  0  0  0  0  0
   25.6038    1.7860    3.4429 C   0  0  0  0  0  0  0  0  0  0  0  0
   30.2420    4.1857    6.8103 H   0  0  0  0  0  0  0  0  0  0  0  0
   29.5780    2.9050    7.8560 H   0  0  0  0  0  0  0  0  0  0  0  0
   28.5177    4.1755    7.0927 H   0  0  0  0  0  0  0  0  0  0  0  0
   29.4703    0.8318    6.9621 H   0  0  0  0  0  0  0  0  0  0  0  0
   29.5159    0.5433    5.1617 H   0  0  0  0  0  0  0  0  0  0  0  0
   31.7999    0.5623    6.8337 H   0  0  0  0  0  0  0  0  0  0  0  0
   31.7509    0.7065    5.0118 H   0  0  0  0  0  0  0  0  0  0  0  0
   32.0022    3.1921    3.9537 H   0  0  0  0  0  0  0  0  0  0  0  0
   31.4322    4.4920    5.0168 H   0  0  0  0  0  0  0  0  0  0  0  0
   29.9935    2.1187    3.7916 H   0  0  0  0  0  0  0  0  0  0  0  0
   29.1104    4.9922    4.4818 H   0  0  0  0  0  0  0  0  0  0  0  0
   29.7612    4.4691    2.8544 H   0  0  0  0  0  0  0  0  0  0  0  0
   27.9698    2.8097    2.7292 H   0  0  0  0  0  0  0  0  0  0  0  0
   27.3319    4.5166    2.8779 H   0  0  0  0  0  0  0  0  0  0  0  0
   27.1612    4.1761    5.3836 H   0  0  0  0  0  0  0  0  0  0  0  0
   27.7792    1.3055    4.7962 H   0  0  0  0  0  0  0  0  0  0  0  0
   27.6123    1.1264    7.2580 H   0  0  0  0  0  0  0  0  0  0  0  0
   27.1225    2.8552    7.3168 H   0  0  0  0  0  0  0  0  0  0  0  0
   25.1946    1.4036    7.5036 H   0  0  0  0  0  0  0  0  0  0  0  0
   25.6818    0.4160    6.0880 H   0  0  0  0  0  0  0  0  0  0  0  0
   23.6964    3.9941    6.6454 H   0  0  0  0  0  0  0  0  0  0  0  0
   25.3863    4.5418    6.4156 H   0  0  0  0  0  0  0  0  0  0  0  0
   25.0081    3.4063    7.7015 H   0  0  0  0  0  0  0  0  0  0  0  0
   23.6137    1.1915    4.6952 H   0  0  0  0  0  0  0  0  0  0  0  0
   21.8049    2.5151    5.9683 H   0  0  0  0  0  0  0  0  0  0  0  0
   22.6875    4.0402    4.7550 H   0  0  0  0  0  0  0  0  0  0  0  0
   22.9999    2.9701    3.2742 H   0  0  0  0  0  0  0  0  0  0  0  0
   24.8731    4.1826    2.9860 H   0  0  0  0  0  0  0  0  0  0  0  0
   24.8991    4.9315    4.6148 H   0  0  0  0  0  0  0  0  0  0  0  0
   26.3237    1.8606    2.6121 H   0  0  0  0  0  0  0  0  0  0  0  0
   25.7131    0.7647    3.8946 H   0  0  0  0  0  0  0  0  0  0  0  0
   24.5750    1.7842    3.0289 H   0  0  0  0  0  0  0  0  0  0  0  0
  2  1  1  1
  2  3  1  0
  3  4  1  0
  4  5  1  0
  5  6  2  0
  5  7  1  0
  7  8  1  0
  8  9  1  0
  9 10  1  0
 10 11  1  0
 11 12  1  0
 12 13  1  0
 13 14  1  0
 14 15  1  0
 15 16  1  1
 15 17  1  0
 17 18  1  0
 17 19  1  0
 19 20  1  0
 20 21  1  0
 21 22  1  6
  8  2  1  0
 21 11  1  0
 12  2  1  0
 21 15  1  0
  1 23  1  0
  1 24  1  0
  1 25  1  0
  3 26  1  0
  3 27  1  0
  4 28  1  0
  4 29  1  0
  7 30  1  0
  7 31  1  0
  8 32  1  6
  9 33  1  0
  9 34  1  0
 10 35  1  0
 10 36  1  0
 11 37  1  1
 12 38  1  6
 13 39  1  0
 13 40  1  0
 14 41  1  0
 14 42  1  0
 16 43  1  0
 16 44  1  0
 16 45  1  0
 17 46  1  6
 18 47  1  0
 19 48  1  0
 19 49  1  0
 20 50  1  0
 20 51  1  0
 22 52  1  0
 22 53  1  0
 22 54  1  0
M  END
$$$$
