
     RDKit          3D

 54 57  0  0  0  0  0  0  0  0999 V2000
   28.8986    3.6966    6.9586 C   0  0  0  0  0  0  0  0  0  0  0  0
   28.8002    2.5258    6.0311 C   0  0  2  0  0  0  0  0  0  0  0  0
   29.7055    1.3909    6.5731 C   0  0  0  0  0  0  0  0  0  0  0  0
   31.2116    1.6685    6.5124 C   0  0  0  0  0  0  0  0  0  0  0  0
   31.3951    3.0584    6.0646 C   0  0  0  0  0  0  0  0  0  0  0  0
   32.1141    3.8192    6.7517 O   0  0  0  0  0  0  0  0  0  0  0  0
   30.7612    3.5869    4.8079 C   0  0  0  0  0  0  0  0  0  0  0  0
   29.4771    2.8125    4.6796 C   0  0  2  0  0  0  0  0  0  0  0  0
   28.5903    2.9369    3.4612 C   0  0  0  0  0  0  0  0  0  0  0  0
   27.5367    3.9617    3.8825 C   0  0  0  0  0  0  0  0  0  0  0  0
   26.7694    3.3612    5.0015 C   0  0  2  0  0  0  0  0  0  0  0  0
   27.4354    2.1726    5.6742 C   0  0  2  0  0  0  0  0  0  0  0  0
   26.6430    1.7254    6.8893 C   0  0  0  0  0  0  0  0  0  0  0  0
   25.2085    1.3240    6.4947 C   0  0  0  0  0  0  0  0  0  0  0  0
   24.5714    2.5087    5.8504 C   0  0  2  0  0  0  0  0  0  0  0  0
   24.4323    3.5419    6.9641 C   0  0  0  0  0  0  0  0  0  0  0  0
   23.2259    2.4197    5.2516 C   0  0  1  0  0  0  0  0  0  0  0  0
   22.3103    2.4788    6.3189 O   0  0  0  0  0  0  0  0  0  0  0  0
   23.1373    3.7991    4.5170 C   0  0  0  0  0  0  0  0  0  0  0  0
   24.5512    4.3290    4.5868 C   0  0  0  0  0  0  0  0  0  0  0  0
   25.3658    2.9671    4.6797 C   0  0  1  0  0  0  0  0  0  0  0  0
   25.1751    2.3217    3.4290 C   0  0  0  0  0  0  0  0  0  0  0  0
   29.7111    3.5635    7.6995 H   0  0  0  0  0  0  0  0  0  0  0  0
   29.0729    4.6513    6.4235 H   0  0  0  0  0  0  0  0  0  0  0  0
   27.9435    3.7821    7.5570 H   0  0  0  0  0  0  0  0  0  0  0  0
   29.4607    1.3782    7.6788 H   0  0  0  0  0  0  0  0  0  0  0  0
   29.5221    0.4304    6.1422 H   0  0  0  0  0  0  0  0  0  0  0  0
   31.6373    0.9797    5.7771 H   0  0  0  0  0  0  0  0  0  0  0  0
   31.6622    1.4712    7.4662 H   0  0  0  0  0  0  0  0  0  0  0  0
   31.4534    3.2814    4.0053 H   0  0  0  0  0  0  0  0  0  0  0  0
   30.6206    4.6667    4.8550 H   0  0  0  0  0  0  0  0  0  0  0  0
   29.9389    1.7355    4.4657 H   0  0  0  0  0  0  0  0  0  0  0  0
   28.1952    2.0183    3.1363 H   0  0  0  0  0  0  0  0  0  0  0  0
   29.1893    3.4149    2.6627 H   0  0  0  0  0  0  0  0  0  0  0  0
   26.8718    4.0992    2.9991 H   0  0  0  0  0  0  0  0  0  0  0  0
   28.0617    4.9020    4.1423 H   0  0  0  0  0  0  0  0  0  0  0  0
   26.6944    4.1582    5.8002 H   0  0  0  0  0  0  0  0  0  0  0  0
   27.4023    1.3100    4.9781 H   0  0  0  0  0  0  0  0  0  0  0  0
   27.1196    0.7629    7.1725 H   0  0  0  0  0  0  0  0  0  0  0  0
   26.6562    2.3712    7.7390 H   0  0  0  0  0  0  0  0  0  0  0  0
   24.6394    0.9472    7.3357 H   0  0  0  0  0  0  0  0  0  0  0  0
   25.3817    0.4763    5.7477 H   0  0  0  0  0  0  0  0  0  0  0  0
   24.0879    2.8990    7.8356 H   0  0  0  0  0  0  0  0  0  0  0  0
   23.5988    4.2420    6.8070 H   0  0  0  0  0  0  0  0  0  0  0  0
   25.3469    3.9674    7.2791 H   0  0  0  0  0  0  0  0  0  0  0  0
   22.9390    1.6032    4.6627 H   0  0  0  0  0  0  0  0  0  0  0  0
   22.2576    1.5262    6.7003 H   0  0  0  0  0  0  0  0  0  0  0  0
   22.5157    4.4905    5.0946 H   0  0  0  0  0  0  0  0  0  0  0  0
   22.8448    3.6443    3.4667 H   0  0  0  0  0  0  0  0  0  0  0  0
   24.8258    4.8071    3.6198 H   0  0  0  0  0  0  0  0  0  0  0  0
   24.7701    4.9770    5.4129 H   0  0  0  0  0  0  0  0  0  0  0  0
   26.0321    1.7319    3.0095 H   0  0  0  0  0  0  0  0  0  0  0  0
   24.3371    1.5265    3.3709 H   0  0  0  0  0  0  0  0  0  0  0  0
   24.9220    3.0324    2.6332 H   0  0  0  0  0  0  0  0  0  0  0  0
  2  1  1  1
  2  3  1  0
  3  4  1  0
  4  5  1  0
  5  6  2  0
  5  7  1  0
  7  8  1  0
  8  9  1  0
  9 10  1  0
 10 11  1  0
 11 12  1  0
 12 13  1  0
 13 14  1  0
 14 15  1  0
 15 16  1  1
 15 17  1  0
 17 18  1  0
 17 19  1  0
 19 20  1  0
 20 21  1  0
 21 22  1  6
  8  2  1  0
 21 11  1  0
 12  2  1  0
 21 15  1  0
  1 23  1  0
  1 24  1  0
  1 25  1  0
  3 26  1  0
  3 27  1  0
  4 28  1  0
  4 29  1  0
  7 30  1  0
  7 31  1  0
  8 32  1  6
  9 33  1  0
  9 34  1  0
 10 35  1  0
 10 36  1  0
 11 37  1  1
 12 38  1  6
 13 39  1  0
 13 40  1  0
 14 41  1  0
 14 42  1  0
 16 43  1  0
 16 44  1  0
 16 45  1  0
 17 46  1  6
 18 47  1  0
 19 48  1  0
 19 49  1  0
 20 50  1  0
 20 51  1  0
 22 52  1  0
 22 53  1  0
 22 54  1  0
M  END
$$$$
