
     RDKit          3D

 54 57  0  0  0  0  0  0  0  0999 V2000
   29.2618    3.5071    6.8510 C   0  0  0  0  0  0  0  0  0  0  0  0
   29.0911    2.5928    5.7238 C   0  0  2  0  0  0  0  0  0  0  0  0
   29.8059    1.2174    6.0426 C   0  0  0  0  0  0  0  0  0  0  0  0
   31.3163    1.2239    6.0290 C   0  0  0  0  0  0  0  0  0  0  0  0
   31.7348    2.6198    5.9730 C   0  0  0  0  0  0  0  0  0  0  0  0
   32.4905    3.0478    6.8410 O   0  0  0  0  0  0  0  0  0  0  0  0
   31.1997    3.4225    4.8521 C   0  0  0  0  0  0  0  0  0  0  0  0
   29.7955    2.9596    4.4322 C   0  0  2  0  0  0  0  0  0  0  0  0
   29.1065    4.1221    3.7652 C   0  0  0  0  0  0  0  0  0  0  0  0
   27.6678    3.7130    3.4506 C   0  0  0  0  0  0  0  0  0  0  0  0
   26.9639    3.3176    4.6927 C   0  0  2  0  0  0  0  0  0  0  0  0
   27.6871    2.1566    5.3967 C   0  0  2  0  0  0  0  0  0  0  0  0
   26.9997    1.9307    6.7658 C   0  0  0  0  0  0  0  0  0  0  0  0
   25.5610    1.4190    6.5323 C   0  0  0  0  0  0  0  0  0  0  0  0
   24.9003    2.4982    5.7316 C   0  0  2  0  0  0  0  0  0  0  0  0
   24.6527    3.6407    6.7039 C   0  0  0  0  0  0  0  0  0  0  0  0
   23.5073    2.1703    5.1941 C   0  0  1  0  0  0  0  0  0  0  0  0
   22.6055    2.2465    6.2036 O   0  0  0  0  0  0  0  0  0  0  0  0
   23.2795    3.4039    4.2687 C   0  0  0  0  0  0  0  0  0  0  0  0
   24.6378    4.0354    4.1220 C   0  0  0  0  0  0  0  0  0  0  0  0
   25.5755    2.8563    4.5092 C   0  0  1  0  0  0  0  0  0  0  0  0
   25.4304    1.7948    3.4418 C   0  0  0  0  0  0  0  0  0  0  0  0
   28.3842    4.1744    7.0703 H   0  0  0  0  0  0  0  0  0  0  0  0
   30.0995    4.2296    6.7548 H   0  0  0  0  0  0  0  0  0  0  0  0
   29.4112    2.9531    7.8103 H   0  0  0  0  0  0  0  0  0  0  0  0
   29.4452    0.8550    7.0222 H   0  0  0  0  0  0  0  0  0  0  0  0
   29.4622    0.4959    5.2615 H   0  0  0  0  0  0  0  0  0  0  0  0
   31.7257    0.6888    6.8998 H   0  0  0  0  0  0  0  0  0  0  0  0
   31.7386    0.7039    5.1303 H   0  0  0  0  0  0  0  0  0  0  0  0
   31.2372    4.5029    5.0523 H   0  0  0  0  0  0  0  0  0  0  0  0
   31.8530    3.1749    3.9773 H   0  0  0  0  0  0  0  0  0  0  0  0
   29.8842    2.0926    3.8085 H   0  0  0  0  0  0  0  0  0  0  0  0
   29.6132    4.3159    2.8265 H   0  0  0  0  0  0  0  0  0  0  0  0
   29.1169    4.9970    4.4026 H   0  0  0  0  0  0  0  0  0  0  0  0
   27.1875    4.6599    3.0957 H   0  0  0  0  0  0  0  0  0  0  0  0
   27.6386    2.9858    2.6584 H   0  0  0  0  0  0  0  0  0  0  0  0
   26.9267    4.1626    5.4255 H   0  0  0  0  0  0  0  0  0  0  0  0
   27.7015    1.2462    4.8352 H   0  0  0  0  0  0  0  0  0  0  0  0
   27.0095    2.8666    7.2911 H   0  0  0  0  0  0  0  0  0  0  0  0
   27.5230    1.1257    7.3053 H   0  0  0  0  0  0  0  0  0  0  0  0
   25.0778    1.3955    7.5237 H   0  0  0  0  0  0  0  0  0  0  0  0
   25.5407    0.4119    6.1253 H   0  0  0  0  0  0  0  0  0  0  0  0
   24.8246    4.6369    6.3589 H   0  0  0  0  0  0  0  0  0  0  0  0
   25.2136    3.5089    7.6718 H   0  0  0  0  0  0  0  0  0  0  0  0
   23.5750    3.5732    7.0771 H   0  0  0  0  0  0  0  0  0  0  0  0
   23.5115    1.2357    4.6157 H   0  0  0  0  0  0  0  0  0  0  0  0
   21.8815    2.9150    6.0377 H   0  0  0  0  0  0  0  0  0  0  0  0
   22.5272    4.0806    4.7312 H   0  0  0  0  0  0  0  0  0  0  0  0
   22.9110    2.9869    3.3260 H   0  0  0  0  0  0  0  0  0  0  0  0
   24.8436    4.1133    2.9987 H   0  0  0  0  0  0  0  0  0  0  0  0
   24.8441    4.9729    4.5336 H   0  0  0  0  0  0  0  0  0  0  0  0
   26.2928    1.7626    2.7849 H   0  0  0  0  0  0  0  0  0  0  0  0
   25.3851    0.7669    3.9096 H   0  0  0  0  0  0  0  0  0  0  0  0
   24.4930    1.9047    2.8969 H   0  0  0  0  0  0  0  0  0  0  0  0
  2  1  1  1
  2  3  1  0
  3  4  1  0
  4  5  1  0
  5  6  2  0
  5  7  1  0
  7  8  1  0
  8  9  1  0
  9 10  1  0
 10 11  1  0
 11 12  1  0
 12 13  1  0
 13 14  1  0
 14 15  1  0
 15 16  1  1
 15 17  1  0
 17 18  1  0
 17 19  1  0
 19 20  1  0
 20 21  1  0
 21 22  1  6
  8  2  1  0
 21 11  1  0
 12  2  1  0
 21 15  1  0
  1 23  1  0
  1 24  1  0
  1 25  1  0
  3 26  1  0
  3 27  1  0
  4 28  1  0
  4 29  1  0
  7 30  1  0
  7 31  1  0
  8 32  1  6
  9 33  1  0
  9 34  1  0
 10 35  1  0
 10 36  1  0
 11 37  1  1
 12 38  1  6
 13 39  1  0
 13 40  1  0
 14 41  1  0
 14 42  1  0
 16 43  1  0
 16 44  1  0
 16 45  1  0
 17 46  1  6
 18 47  1  0
 19 48  1  0
 19 49  1  0
 20 50  1  0
 20 51  1  0
 22 52  1  0
 22 53  1  0
 22 54  1  0
M  END
$$$$
