
     RDKit          3D

 54 57  0  0  0  0  0  0  0  0999 V2000
   29.2514    3.4060    6.8813 C   0  0  0  0  0  0  0  0  0  0  0  0
   29.1409    2.5266    5.7139 C   0  0  2  0  0  0  0  0  0  0  0  0
   29.8560    1.1590    5.9722 C   0  0  0  0  0  0  0  0  0  0  0  0
   31.3639    1.1638    5.9586 C   0  0  0  0  0  0  0  0  0  0  0  0
   31.7705    2.5637    5.8819 C   0  0  0  0  0  0  0  0  0  0  0  0
   32.5429    3.0254    6.7402 O   0  0  0  0  0  0  0  0  0  0  0  0
   31.2580    3.3799    4.7906 C   0  0  0  0  0  0  0  0  0  0  0  0
   29.8231    2.8963    4.4273 C   0  0  2  0  0  0  0  0  0  0  0  0
   29.1430    4.0688    3.7401 C   0  0  0  0  0  0  0  0  0  0  0  0
   27.7330    3.6652    3.4254 C   0  0  0  0  0  0  0  0  0  0  0  0
   27.0033    3.2961    4.6764 C   0  0  2  0  0  0  0  0  0  0  0  0
   27.7190    2.1092    5.3874 C   0  0  2  0  0  0  0  0  0  0  0  0
   27.0184    1.9428    6.7557 C   0  0  0  0  0  0  0  0  0  0  0  0
   25.5842    1.4501    6.5363 C   0  0  0  0  0  0  0  0  0  0  0  0
   24.9169    2.4885    5.6985 C   0  0  2  0  0  0  0  0  0  0  0  0
   24.7294    3.7422    6.6600 C   0  0  0  0  0  0  0  0  0  0  0  0
   23.5289    2.1895    5.2255 C   0  0  1  0  0  0  0  0  0  0  0  0
   22.6333    2.3218    6.2472 O   0  0  0  0  0  0  0  0  0  0  0  0
   23.3164    3.3894    4.2227 C   0  0  0  0  0  0  0  0  0  0  0  0
   24.6829    4.0049    4.0584 C   0  0  0  0  0  0  0  0  0  0  0  0
   25.6115    2.8243    4.4696 C   0  0  1  0  0  0  0  0  0  0  0  0
   25.4424    1.7512    3.4670 C   0  0  0  0  0  0  0  0  0  0  0  0
   30.1662    4.0087    7.0148 H   0  0  0  0  0  0  0  0  0  0  0  0
   29.1567    2.8114    7.8422 H   0  0  0  0  0  0  0  0  0  0  0  0
   28.4149    4.1922    6.8948 H   0  0  0  0  0  0  0  0  0  0  0  0
   29.4777    0.7382    6.9466 H   0  0  0  0  0  0  0  0  0  0  0  0
   29.5177    0.5063    5.1559 H   0  0  0  0  0  0  0  0  0  0  0  0
   31.7819    0.5517    5.1454 H   0  0  0  0  0  0  0  0  0  0  0  0
   31.7583    0.7050    6.8830 H   0  0  0  0  0  0  0  0  0  0  0  0
   31.2287    4.4885    5.0170 H   0  0  0  0  0  0  0  0  0  0  0  0
   31.9356    3.3068    3.9035 H   0  0  0  0  0  0  0  0  0  0  0  0
   29.9674    2.0368    3.7889 H   0  0  0  0  0  0  0  0  0  0  0  0
   29.6708    4.2814    2.8174 H   0  0  0  0  0  0  0  0  0  0  0  0
   29.1772    4.9728    4.3836 H   0  0  0  0  0  0  0  0  0  0  0  0
   27.7214    2.9396    2.6267 H   0  0  0  0  0  0  0  0  0  0  0  0
   27.2614    4.6065    3.0354 H   0  0  0  0  0  0  0  0  0  0  0  0
   27.0243    4.1615    5.3762 H   0  0  0  0  0  0  0  0  0  0  0  0
   27.7248    1.2676    4.7524 H   0  0  0  0  0  0  0  0  0  0  0  0
   27.4790    1.1821    7.3350 H   0  0  0  0  0  0  0  0  0  0  0  0
   26.9855    2.8919    7.2544 H   0  0  0  0  0  0  0  0  0  0  0  0
   25.4936    0.4354    6.1788 H   0  0  0  0  0  0  0  0  0  0  0  0
   25.1535    1.4873    7.5505 H   0  0  0  0  0  0  0  0  0  0  0  0
   25.3055    3.6129    7.5882 H   0  0  0  0  0  0  0  0  0  0  0  0
   24.9829    4.6734    6.2594 H   0  0  0  0  0  0  0  0  0  0  0  0
   23.6745    3.7041    6.9919 H   0  0  0  0  0  0  0  0  0  0  0  0
   23.4625    1.2220    4.6908 H   0  0  0  0  0  0  0  0  0  0  0  0
   21.8301    1.7381    6.1666 H   0  0  0  0  0  0  0  0  0  0  0  0
   22.8484    2.9457    3.3493 H   0  0  0  0  0  0  0  0  0  0  0  0
   22.6697    4.1398    4.6893 H   0  0  0  0  0  0  0  0  0  0  0  0
   24.8904    4.9403    4.4410 H   0  0  0  0  0  0  0  0  0  0  0  0
   24.8400    4.0207    2.9331 H   0  0  0  0  0  0  0  0  0  0  0  0
   26.1786    1.8128    2.6319 H   0  0  0  0  0  0  0  0  0  0  0  0
   24.4598    1.8559    2.9900 H   0  0  0  0  0  0  0  0  0  0  0  0
   25.5695    0.7380    3.8757 H   0  0  0  0  0  0  0  0  0  0  0  0
  2  1  1  1
  2  3  1  0
  3  4  1  0
  4  5  1  0
  5  6  2  0
  5  7  1  0
  7  8  1  0
  8  9  1  0
  9 10  1  0
 10 11  1  0
 11 12  1  0
 12 13  1  0
 13 14  1  0
 14 15  1  0
 15 16  1  1
 15 17  1  0
 17 18  1  0
 17 19  1  0
 19 20  1  0
 20 21  1  0
 21 22  1  6
  8  2  1  0
 21 11  1  0
 12  2  1  0
 21 15  1  0
  1 23  1  0
  1 24  1  0
  1 25  1  0
  3 26  1  0
  3 27  1  0
  4 28  1  0
  4 29  1  0
  7 30  1  0
  7 31  1  0
  8 32  1  6
  9 33  1  0
  9 34  1  0
 10 35  1  0
 10 36  1  0
 11 37  1  1
 12 38  1  6
 13 39  1  0
 13 40  1  0
 14 41  1  0
 14 42  1  0
 16 43  1  0
 16 44  1  0
 16 45  1  0
 17 46  1  6
 18 47  1  0
 19 48  1  0
 19 49  1  0
 20 50  1  0
 20 51  1  0
 22 52  1  0
 22 53  1  0
 22 54  1  0
M  END
$$$$
