
     RDKit          3D

 54 57  0  0  0  0  0  0  0  0999 V2000
   29.2851    3.1501    6.9689 C   0  0  0  0  0  0  0  0  0  0  0  0
   28.8326    2.6327    5.6771 C   0  0  2  0  0  0  0  0  0  0  0  0
   29.5386    1.1814    5.6684 C   0  0  0  0  0  0  0  0  0  0  0  0
   30.9464    1.1195    5.6411 C   0  0  0  0  0  0  0  0  0  0  0  0
   31.7210    2.3142    5.3014 C   0  0  0  0  0  0  0  0  0  0  0  0
   32.8744    2.3207    5.3286 O   0  0  0  0  0  0  0  0  0  0  0  0
   30.9749    3.5057    4.8489 C   0  0  0  0  0  0  0  0  0  0  0  0
   29.5894    3.2296    4.4874 C   0  0  2  0  0  0  0  0  0  0  0  0
   28.8574    4.3867    3.9279 C   0  0  0  0  0  0  0  0  0  0  0  0
   27.4336    3.8909    3.5075 C   0  0  0  0  0  0  0  0  0  0  0  0
   26.7544    3.3973    4.7270 C   0  0  2  0  0  0  0  0  0  0  0  0
   27.4709    2.2021    5.3794 C   0  0  2  0  0  0  0  0  0  0  0  0
   26.7169    2.2824    6.8521 C   0  0  0  0  0  0  0  0  0  0  0  0
   25.2851    1.7474    6.6148 C   0  0  0  0  0  0  0  0  0  0  0  0
   24.6828    2.6483    5.6687 C   0  0  2  0  0  0  0  0  0  0  0  0
   24.1761    3.9771    6.3080 C   0  0  0  0  0  0  0  0  0  0  0  0
   23.3138    2.1073    5.1185 C   0  0  1  0  0  0  0  0  0  0  0  0
   22.3264    2.3706    6.0263 O   0  0  0  0  0  0  0  0  0  0  0  0
   23.0733    3.0854    3.9378 C   0  0  0  0  0  0  0  0  0  0  0  0
   24.4085    3.8200    3.7827 C   0  0  0  0  0  0  0  0  0  0  0  0
   25.3643    2.8958    4.4490 C   0  0  1  0  0  0  0  0  0  0  0  0
   25.4821    1.6170    3.5963 C   0  0  0  0  0  0  0  0  0  0  0  0
   28.5973    3.1289    7.8197 H   0  0  0  0  0  0  0  0  0  0  0  0
   29.7784    4.1844    6.9683 H   0  0  0  0  0  0  0  0  0  0  0  0
   30.1590    2.5423    7.4018 H   0  0  0  0  0  0  0  0  0  0  0  0
   29.1719    0.8395    4.6551 H   0  0  0  0  0  0  0  0  0  0  0  0
   28.9899    0.5745    6.3435 H   0  0  0  0  0  0  0  0  0  0  0  0
   31.3188    0.3678    4.7615 H   0  0  0  0  0  0  0  0  0  0  0  0
   31.4133    0.6020    6.5038 H   0  0  0  0  0  0  0  0  0  0  0  0
   31.1085    4.4157    5.4739 H   0  0  0  0  0  0  0  0  0  0  0  0
   31.4408    3.7762    3.8046 H   0  0  0  0  0  0  0  0  0  0  0  0
   29.5158    2.4494    3.7026 H   0  0  0  0  0  0  0  0  0  0  0  0
   29.3443    4.9593    3.2446 H   0  0  0  0  0  0  0  0  0  0  0  0
   28.5607    5.0405    4.8734 H   0  0  0  0  0  0  0  0  0  0  0  0
   26.8382    4.6519    2.9980 H   0  0  0  0  0  0  0  0  0  0  0  0
   27.6958    3.0439    2.7659 H   0  0  0  0  0  0  0  0  0  0  0  0
   26.7680    4.2158    5.4637 H   0  0  0  0  0  0  0  0  0  0  0  0
   27.2176    1.3140    5.0165 H   0  0  0  0  0  0  0  0  0  0  0  0
   27.2196    1.5754    7.4862 H   0  0  0  0  0  0  0  0  0  0  0  0
   26.6417    3.3116    7.1263 H   0  0  0  0  0  0  0  0  0  0  0  0
   24.7720    1.8682    7.6092 H   0  0  0  0  0  0  0  0  0  0  0  0
   25.3128    0.7179    6.3547 H   0  0  0  0  0  0  0  0  0  0  0  0
   24.0852    3.8483    7.3637 H   0  0  0  0  0  0  0  0  0  0  0  0
   24.8672    4.7977    6.0716 H   0  0  0  0  0  0  0  0  0  0  0  0
   23.2135    4.2920    5.9030 H   0  0  0  0  0  0  0  0  0  0  0  0
   23.4375    1.0642    4.7757 H   0  0  0  0  0  0  0  0  0  0  0  0
   21.4979    2.7184    5.5661 H   0  0  0  0  0  0  0  0  0  0  0  0
   22.2785    3.7785    4.1286 H   0  0  0  0  0  0  0  0  0  0  0  0
   22.8896    2.4299    3.0608 H   0  0  0  0  0  0  0  0  0  0  0  0
   24.3661    4.8649    4.0749 H   0  0  0  0  0  0  0  0  0  0  0  0
   24.6475    3.7245    2.6492 H   0  0  0  0  0  0  0  0  0  0  0  0
   26.4642    1.5549    3.1594 H   0  0  0  0  0  0  0  0  0  0  0  0
   25.4024    0.7554    4.2908 H   0  0  0  0  0  0  0  0  0  0  0  0
   24.6882    1.5341    2.8652 H   0  0  0  0  0  0  0  0  0  0  0  0
  2  1  1  1
  2  3  1  0
  3  4  1  0
  4  5  1  0
  5  6  2  0
  5  7  1  0
  7  8  1  0
  8  9  1  0
  9 10  1  0
 10 11  1  0
 11 12  1  0
 12 13  1  0
 13 14  1  0
 14 15  1  0
 15 16  1  1
 15 17  1  0
 17 18  1  0
 17 19  1  0
 19 20  1  0
 20 21  1  0
 21 22  1  6
  8  2  1  0
 21 11  1  0
 12  2  1  0
 21 15  1  0
  1 23  1  0
  1 24  1  0
  1 25  1  0
  3 26  1  0
  3 27  1  0
  4 28  1  0
  4 29  1  0
  7 30  1  0
  7 31  1  0
  8 32  1  6
  9 33  1  0
  9 34  1  0
 10 35  1  0
 10 36  1  0
 11 37  1  1
 12 38  1  6
 13 39  1  0
 13 40  1  0
 14 41  1  0
 14 42  1  0
 16 43  1  0
 16 44  1  0
 16 45  1  0
 17 46  1  6
 18 47  1  0
 19 48  1  0
 19 49  1  0
 20 50  1  0
 20 51  1  0
 22 52  1  0
 22 53  1  0
 22 54  1  0
M  END
$$$$
