
     RDKit          3D

 45 48  0  0  0  0  0  0  0  0999 V2000
   32.6131    2.3909    4.9251 C   0  0  0  0  0  0  0  0  0  0  0  0
   32.4071    1.9125    6.3659 C   0  0  2  0  0  0  0  0  0  0  0  0
   32.6321    0.3854    6.4875 C   0  0  0  0  0  0  0  0  0  0  0  0
   31.2512   -0.2880    6.5859 C   0  0  0  0  0  0  0  0  0  0  0  0
   30.2691    0.8340    6.2575 C   0  0  2  0  0  0  0  0  0  0  0  0
   30.9336    2.0879    6.8439 C   0  0  2  0  0  0  0  0  0  0  0  0
   30.1620    3.2665    6.3522 C   0  0  0  0  0  0  0  0  0  0  0  0
   28.8400    3.1736    6.1620 C   0  0  0  0  0  0  0  0  0  0  0  0
   28.0663    1.9707    6.3832 C   0  0  0  0  0  0  0  0  0  0  0  0
   26.7069    1.9403    6.3079 C   0  0  0  0  0  0  0  0  0  0  0  0
   25.8548    3.1384    5.9715 C   0  0  0  0  0  0  0  0  0  0  0  0
   24.5804    3.1756    6.8093 C   0  0  0  0  0  0  0  0  0  0  0  0
   23.7915    1.8921    6.6620 C   0  0  0  0  0  0  0  0  0  0  0  0
   22.5765    1.8649    6.6663 O   0  0  0  0  0  0  0  0  0  0  0  0
   24.6150    0.6996    6.5772 C   0  0  0  0  0  0  0  0  0  0  0  0
   25.9660    0.7124    6.4945 C   0  0  0  0  0  0  0  0  0  0  0  0
   26.7106   -0.5895    6.5903 C   0  0  0  0  0  0  0  0  0  0  0  0
   28.1209   -0.4796    6.0347 C   0  0  0  0  0  0  0  0  0  0  0  0
   28.8224    0.6971    6.7099 C   0  0  1  0  0  0  0  0  0  0  0  0
   30.9081    2.1304    8.3814 C   0  0  0  0  0  0  0  0  0  0  0  0
   33.3474    2.5519    7.2053 O   0  0  0  0  0  0  0  0  0  0  0  0
   32.4142    3.4579    4.8384 H   0  0  0  0  0  0  0  0  0  0  0  0
   33.6474    2.2115    4.6380 H   0  0  0  0  0  0  0  0  0  0  0  0
   31.9636    1.8629    4.2341 H   0  0  0  0  0  0  0  0  0  0  0  0
   33.2344    0.2043    7.3763 H   0  0  0  0  0  0  0  0  0  0  0  0
   33.1921    0.0208    5.6281 H   0  0  0  0  0  0  0  0  0  0  0  0
   31.0704   -0.6716    7.5902 H   0  0  0  0  0  0  0  0  0  0  0  0
   31.1646   -1.1207    5.8895 H   0  0  0  0  0  0  0  0  0  0  0  0
   30.2478    0.9602    5.1687 H   0  0  0  0  0  0  0  0  0  0  0  0
   30.6677    4.2105    6.2077 H   0  0  0  0  0  0  0  0  0  0  0  0
   28.3105    4.0515    5.8251 H   0  0  0  0  0  0  0  0  0  0  0  0
   26.3945    4.0714    6.1215 H   0  0  0  0  0  0  0  0  0  0  0  0
   25.5784    3.0765    4.9129 H   0  0  0  0  0  0  0  0  0  0  0  0
   23.9536    4.0238    6.5303 H   0  0  0  0  0  0  0  0  0  0  0  0
   24.8370    3.2799    7.8682 H   0  0  0  0  0  0  0  0  0  0  0  0
   24.0862   -0.2420    6.6340 H   0  0  0  0  0  0  0  0  0  0  0  0
   26.1482   -1.3710    6.0759 H   0  0  0  0  0  0  0  0  0  0  0  0
   26.7640   -0.8717    7.6477 H   0  0  0  0  0  0  0  0  0  0  0  0
   28.6700   -1.4035    6.2190 H   0  0  0  0  0  0  0  0  0  0  0  0
   28.0852   -0.3116    4.9557 H   0  0  0  0  0  0  0  0  0  0  0  0
   28.7939    0.5293    7.7933 H   0  0  0  0  0  0  0  0  0  0  0  0
   31.4596    3.0008    8.7293 H   0  0  0  0  0  0  0  0  0  0  0  0
   29.8881    2.2099    8.7472 H   0  0  0  0  0  0  0  0  0  0  0  0
   31.3786    1.2485    8.8032 H   0  0  0  0  0  0  0  0  0  0  0  0
   33.2908    3.5031    7.0636 H   0  0  0  0  0  0  0  0  0  0  0  0
  1  2  1  0
  2  3  1  0
  3  4  1  0
  4  5  1  0
  5  6  1  0
  6  7  1  0
  7  8  2  0
  8  9  1  0
  9 10  2  0
 10 11  1  0
 11 12  1  0
 12 13  1  0
 13 14  2  0
 13 15  1  0
 15 16  2  0
 16 17  1  0
 17 18  1  0
 18 19  1  0
  6 20  1  1
  2 21  1  1
  6  2  1  0
 19  5  1  0
 19  9  1  0
 16 10  1  0
  1 22  1  0
  1 23  1  0
  1 24  1  0
  3 25  1  0
  3 26  1  0
  4 27  1  0
  4 28  1  0
  5 29  1  6
  7 30  1  0
  8 31  1  0
 11 32  1  0
 11 33  1  0
 12 34  1  0
 12 35  1  0
 15 36  1  0
 17 37  1  0
 17 38  1  0
 18 39  1  0
 18 40  1  0
 19 41  1  1
 20 42  1  0
 20 43  1  0
 20 44  1  0
 21 45  1  0
M  END
$$$$
