
     RDKit          3D

 54 57  0  0  0  0  0  0  0  0999 V2000
   29.0061    3.0031    6.9159 C   0  0  0  0  0  0  0  0  0  0  0  0
   28.5536    2.4857    5.6241 C   0  0  2  0  0  0  0  0  0  0  0  0
   29.2596    1.0344    5.6154 C   0  0  0  0  0  0  0  0  0  0  0  0
   30.6674    0.9725    5.5881 C   0  0  0  0  0  0  0  0  0  0  0  0
   31.4420    2.1672    5.2484 C   0  0  0  0  0  0  0  0  0  0  0  0
   32.5954    2.1737    5.2756 O   0  0  0  0  0  0  0  0  0  0  0  0
   30.6959    3.3587    4.7959 C   0  0  0  0  0  0  0  0  0  0  0  0
   29.3104    3.0826    4.4344 C   0  0  2  0  0  0  0  0  0  0  0  0
   28.5784    4.2397    3.8749 C   0  0  0  0  0  0  0  0  0  0  0  0
   27.1546    3.7439    3.4545 C   0  0  0  0  0  0  0  0  0  0  0  0
   26.4754    3.2503    4.6740 C   0  0  2  0  0  0  0  0  0  0  0  0
   27.1919    2.0551    5.3264 C   0  0  2  0  0  0  0  0  0  0  0  0
   26.4379    2.1354    6.7991 C   0  0  0  0  0  0  0  0  0  0  0  0
   25.0061    1.6004    6.5618 C   0  0  0  0  0  0  0  0  0  0  0  0
   24.4038    2.5013    5.6157 C   0  0  2  0  0  0  0  0  0  0  0  0
   23.8971    3.8301    6.2550 C   0  0  0  0  0  0  0  0  0  0  0  0
   23.0348    1.9603    5.0655 C   0  0  1  0  0  0  0  0  0  0  0  0
   22.0474    2.2236    5.9733 O   0  0  0  0  0  0  0  0  0  0  0  0
   22.7943    2.9384    3.8848 C   0  0  0  0  0  0  0  0  0  0  0  0
   24.1295    3.6730    3.7297 C   0  0  0  0  0  0  0  0  0  0  0  0
   25.0853    2.7488    4.3960 C   0  0  1  0  0  0  0  0  0  0  0  0
   25.2031    1.4700    3.5433 C   0  0  0  0  0  0  0  0  0  0  0  0
   28.3183    2.9819    7.7667 H   0  0  0  0  0  0  0  0  0  0  0  0
   29.4994    4.0374    6.9153 H   0  0  0  0  0  0  0  0  0  0  0  0
   29.8800    2.3953    7.3488 H   0  0  0  0  0  0  0  0  0  0  0  0
   28.8929    0.6925    4.6021 H   0  0  0  0  0  0  0  0  0  0  0  0
   28.7109    0.4275    6.2905 H   0  0  0  0  0  0  0  0  0  0  0  0
   31.0398    0.2208    4.7085 H   0  0  0  0  0  0  0  0  0  0  0  0
   31.1343    0.4550    6.4508 H   0  0  0  0  0  0  0  0  0  0  0  0
   30.8295    4.2687    5.4209 H   0  0  0  0  0  0  0  0  0  0  0  0
   31.1618    3.6292    3.7516 H   0  0  0  0  0  0  0  0  0  0  0  0
   29.2368    2.3024    3.6496 H   0  0  0  0  0  0  0  0  0  0  0  0
   29.0653    4.8123    3.1916 H   0  0  0  0  0  0  0  0  0  0  0  0
   28.2817    4.8935    4.8204 H   0  0  0  0  0  0  0  0  0  0  0  0
   26.5592    4.5049    2.9450 H   0  0  0  0  0  0  0  0  0  0  0  0
   27.4168    2.8969    2.7129 H   0  0  0  0  0  0  0  0  0  0  0  0
   26.4890    4.0688    5.4107 H   0  0  0  0  0  0  0  0  0  0  0  0
   26.9386    1.1670    4.9635 H   0  0  0  0  0  0  0  0  0  0  0  0
   26.9406    1.4284    7.4332 H   0  0  0  0  0  0  0  0  0  0  0  0
   26.3627    3.1646    7.0733 H   0  0  0  0  0  0  0  0  0  0  0  0
   24.4930    1.7212    7.5562 H   0  0  0  0  0  0  0  0  0  0  0  0
   25.0338    0.5709    6.3017 H   0  0  0  0  0  0  0  0  0  0  0  0
   23.8062    3.7013    7.3107 H   0  0  0  0  0  0  0  0  0  0  0  0
   24.5882    4.6507    6.0186 H   0  0  0  0  0  0  0  0  0  0  0  0
   22.9345    4.1450    5.8500 H   0  0  0  0  0  0  0  0  0  0  0  0
   23.1585    0.9172    4.7227 H   0  0  0  0  0  0  0  0  0  0  0  0
   21.2189    2.5714    5.5131 H   0  0  0  0  0  0  0  0  0  0  0  0
   21.9995    3.6315    4.0756 H   0  0  0  0  0  0  0  0  0  0  0  0
   22.6106    2.2829    3.0078 H   0  0  0  0  0  0  0  0  0  0  0  0
   24.0871    4.7179    4.0219 H   0  0  0  0  0  0  0  0  0  0  0  0
   24.3685    3.5775    2.5962 H   0  0  0  0  0  0  0  0  0  0  0  0
   26.1852    1.4079    3.1064 H   0  0  0  0  0  0  0  0  0  0  0  0
   25.1234    0.6084    4.2378 H   0  0  0  0  0  0  0  0  0  0  0  0
   24.4092    1.3871    2.8122 H   0  0  0  0  0  0  0  0  0  0  0  0
  2  1  1  1
  2  3  1  0
  3  4  1  0
  4  5  1  0
  5  6  2  0
  5  7  1  0
  7  8  1  0
  8  9  1  0
  9 10  1  0
 10 11  1  0
 11 12  1  0
 12 13  1  0
 13 14  1  0
 14 15  1  0
 15 16  1  1
 15 17  1  0
 17 18  1  0
 17 19  1  0
 19 20  1  0
 20 21  1  0
 21 22  1  6
  8  2  1  0
 21 11  1  0
 12  2  1  0
 21 15  1  0
  1 23  1  0
  1 24  1  0
  1 25  1  0
  3 26  1  0
  3 27  1  0
  4 28  1  0
  4 29  1  0
  7 30  1  0
  7 31  1  0
  8 32  1  6
  9 33  1  0
  9 34  1  0
 10 35  1  0
 10 36  1  0
 11 37  1  1
 12 38  1  6
 13 39  1  0
 13 40  1  0
 14 41  1  0
 14 42  1  0
 16 43  1  0
 16 44  1  0
 16 45  1  0
 17 46  1  6
 18 47  1  0
 19 48  1  0
 19 49  1  0
 20 50  1  0
 20 51  1  0
 22 52  1  0
 22 53  1  0
 22 54  1  0
M  END
$$$$
