
     RDKit          3D

 54 57  0  0  0  0  0  0  0  0999 V2000
   28.9828    3.3601    6.7980 C   0  0  0  0  0  0  0  0  0  0  0  0
   28.8121    2.4458    5.6708 C   0  0  2  0  0  0  0  0  0  0  0  0
   29.5269    1.0704    5.9896 C   0  0  0  0  0  0  0  0  0  0  0  0
   31.0373    1.0769    5.9760 C   0  0  0  0  0  0  0  0  0  0  0  0
   31.4558    2.4728    5.9200 C   0  0  0  0  0  0  0  0  0  0  0  0
   32.2115    2.9008    6.7880 O   0  0  0  0  0  0  0  0  0  0  0  0
   30.9207    3.2755    4.7991 C   0  0  0  0  0  0  0  0  0  0  0  0
   29.5165    2.8126    4.3792 C   0  0  2  0  0  0  0  0  0  0  0  0
   28.8275    3.9751    3.7122 C   0  0  0  0  0  0  0  0  0  0  0  0
   27.3888    3.5660    3.3976 C   0  0  0  0  0  0  0  0  0  0  0  0
   26.6849    3.1706    4.6397 C   0  0  2  0  0  0  0  0  0  0  0  0
   27.4081    2.0096    5.3437 C   0  0  2  0  0  0  0  0  0  0  0  0
   26.7207    1.7837    6.7128 C   0  0  0  0  0  0  0  0  0  0  0  0
   25.2820    1.2720    6.4793 C   0  0  0  0  0  0  0  0  0  0  0  0
   24.6213    2.3512    5.6786 C   0  0  2  0  0  0  0  0  0  0  0  0
   24.3737    3.4937    6.6509 C   0  0  0  0  0  0  0  0  0  0  0  0
   23.2283    2.0233    5.1411 C   0  0  1  0  0  0  0  0  0  0  0  0
   22.3265    2.0995    6.1506 O   0  0  0  0  0  0  0  0  0  0  0  0
   23.0005    3.2569    4.2157 C   0  0  0  0  0  0  0  0  0  0  0  0
   24.3588    3.8884    4.0690 C   0  0  0  0  0  0  0  0  0  0  0  0
   25.2965    2.7093    4.4562 C   0  0  1  0  0  0  0  0  0  0  0  0
   25.1514    1.6478    3.3888 C   0  0  0  0  0  0  0  0  0  0  0  0
   28.1052    4.0274    7.0173 H   0  0  0  0  0  0  0  0  0  0  0  0
   29.8205    4.0826    6.7018 H   0  0  0  0  0  0  0  0  0  0  0  0
   29.1322    2.8061    7.7573 H   0  0  0  0  0  0  0  0  0  0  0  0
   29.1662    0.7080    6.9692 H   0  0  0  0  0  0  0  0  0  0  0  0
   29.1832    0.3489    5.2085 H   0  0  0  0  0  0  0  0  0  0  0  0
   31.4467    0.5418    6.8468 H   0  0  0  0  0  0  0  0  0  0  0  0
   31.4596    0.5569    5.0773 H   0  0  0  0  0  0  0  0  0  0  0  0
   30.9582    4.3559    4.9993 H   0  0  0  0  0  0  0  0  0  0  0  0
   31.5740    3.0279    3.9243 H   0  0  0  0  0  0  0  0  0  0  0  0
   29.6052    1.9456    3.7555 H   0  0  0  0  0  0  0  0  0  0  0  0
   29.3342    4.1689    2.7735 H   0  0  0  0  0  0  0  0  0  0  0  0
   28.8379    4.8500    4.3496 H   0  0  0  0  0  0  0  0  0  0  0  0
   26.9085    4.5129    3.0427 H   0  0  0  0  0  0  0  0  0  0  0  0
   27.3596    2.8388    2.6054 H   0  0  0  0  0  0  0  0  0  0  0  0
   26.6477    4.0156    5.3725 H   0  0  0  0  0  0  0  0  0  0  0  0
   27.4225    1.0992    4.7822 H   0  0  0  0  0  0  0  0  0  0  0  0
   26.7305    2.7196    7.2381 H   0  0  0  0  0  0  0  0  0  0  0  0
   27.2440    0.9787    7.2523 H   0  0  0  0  0  0  0  0  0  0  0  0
   24.7988    1.2485    7.4707 H   0  0  0  0  0  0  0  0  0  0  0  0
   25.2617    0.2649    6.0723 H   0  0  0  0  0  0  0  0  0  0  0  0
   24.5456    4.4899    6.3059 H   0  0  0  0  0  0  0  0  0  0  0  0
   24.9346    3.3619    7.6188 H   0  0  0  0  0  0  0  0  0  0  0  0
   23.2960    3.4262    7.0241 H   0  0  0  0  0  0  0  0  0  0  0  0
   23.2325    1.0887    4.5627 H   0  0  0  0  0  0  0  0  0  0  0  0
   21.6025    2.7680    5.9847 H   0  0  0  0  0  0  0  0  0  0  0  0
   22.2482    3.9336    4.6782 H   0  0  0  0  0  0  0  0  0  0  0  0
   22.6320    2.8399    3.2730 H   0  0  0  0  0  0  0  0  0  0  0  0
   24.5646    3.9663    2.9457 H   0  0  0  0  0  0  0  0  0  0  0  0
   24.5651    4.8259    4.4806 H   0  0  0  0  0  0  0  0  0  0  0  0
   26.0138    1.6156    2.7319 H   0  0  0  0  0  0  0  0  0  0  0  0
   25.1061    0.6199    3.8566 H   0  0  0  0  0  0  0  0  0  0  0  0
   24.2140    1.7577    2.8439 H   0  0  0  0  0  0  0  0  0  0  0  0
  2  1  1  1
  2  3  1  0
  3  4  1  0
  4  5  1  0
  5  6  2  0
  5  7  1  0
  7  8  1  0
  8  9  1  0
  9 10  1  0
 10 11  1  0
 11 12  1  0
 12 13  1  0
 13 14  1  0
 14 15  1  0
 15 16  1  1
 15 17  1  0
 17 18  1  0
 17 19  1  0
 19 20  1  0
 20 21  1  0
 21 22  1  6
  8  2  1  0
 21 11  1  0
 12  2  1  0
 21 15  1  0
  1 23  1  0
  1 24  1  0
  1 25  1  0
  3 26  1  0
  3 27  1  0
  4 28  1  0
  4 29  1  0
  7 30  1  0
  7 31  1  0
  8 32  1  6
  9 33  1  0
  9 34  1  0
 10 35  1  0
 10 36  1  0
 11 37  1  1
 12 38  1  6
 13 39  1  0
 13 40  1  0
 14 41  1  0
 14 42  1  0
 16 43  1  0
 16 44  1  0
 16 45  1  0
 17 46  1  6
 18 47  1  0
 19 48  1  0
 19 49  1  0
 20 50  1  0
 20 51  1  0
 22 52  1  0
 22 53  1  0
 22 54  1  0
M  END
$$$$
