
     RDKit          3D

 43 44  0  0  0  0  0  0  0  0999 V2000
   23.4623   -0.4108    3.5017 C   0  0  0  0  0  0  0  0  0  0  0  0
   23.7686    0.4065    4.7671 C   0  0  2  0  0  0  0  0  0  0  0  0
   22.5654    1.2686    5.1416 C   0  0  0  0  0  0  0  0  0  0  0  0
   22.8370    2.1577    6.7174 S   0  0  0  0  0  0  0  0  0  0  0  0
   21.6338    2.8663    7.0345 O   0  0  0  0  0  0  0  0  0  0  0  0
   23.3164    1.1780    7.6725 O   0  0  0  0  0  0  0  0  0  0  0  0
   24.1639    3.3342    6.4444 C   0  0  0  0  0  0  0  0  0  0  0  0
   23.9420    4.4276    5.6282 C   0  0  0  0  0  0  0  0  0  0  0  0
   24.9801    5.3057    5.3769 C   0  0  0  0  0  0  0  0  0  0  0  0
   26.2121    5.0614    5.9631 C   0  0  0  0  0  0  0  0  0  0  0  0
   26.4336    3.9866    6.8084 C   0  0  0  0  0  0  0  0  0  0  0  0
   25.3884    3.1111    7.0449 C   0  0  0  0  0  0  0  0  0  0  0  0
   27.2320    5.8936    5.6998 F   0  0  0  0  0  0  0  0  0  0  0  0
   24.9393    1.3530    4.4112 C   0  0  0  0  0  0  0  0  0  0  0  0
   24.7770    2.3400    3.7255 O   0  0  0  0  0  0  0  0  0  0  0  0
   26.1130    0.9217    4.9306 N   0  0  0  0  0  0  0  0  0  0  0  0
   27.3579    1.5280    4.8914 C   0  0  0  0  0  0  0  0  0  0  0  0
   28.3749    0.9815    5.6768 C   0  0  0  0  0  0  0  0  0  0  0  0
   29.6257    1.5665    5.6956 C   0  0  0  0  0  0  0  0  0  0  0  0
   29.8865    2.7109    4.9307 C   0  0  0  0  0  0  0  0  0  0  0  0
   28.8667    3.2437    4.1411 C   0  0  0  0  0  0  0  0  0  0  0  0
   27.6178    2.6602    4.1176 C   0  0  0  0  0  0  0  0  0  0  0  0
   31.1590    3.3307    4.9440 C   0  0  0  0  0  0  0  0  0  0  0  0
   32.1792    3.8504    4.9374 N   0  0  0  0  0  0  0  0  0  0  0  0
   30.7238    0.9900    6.5504 C   0  0  0  0  0  0  0  0  0  0  0  0
   31.8011    0.6415    5.8328 F   0  0  0  0  0  0  0  0  0  0  0  0
   30.3349   -0.1123    7.2087 F   0  0  0  0  0  0  0  0  0  0  0  0
   31.1418    1.8581    7.4856 F   0  0  0  0  0  0  0  0  0  0  0  0
   24.1397   -0.4905    5.7858 O   0  0  0  0  0  0  0  0  0  0  0  0
   23.2714    0.2535    2.6644 H   0  0  0  0  0  0  0  0  0  0  0  0
   22.5956   -1.0419    3.6763 H   0  0  0  0  0  0  0  0  0  0  0  0
   24.3124   -1.0478    3.2720 H   0  0  0  0  0  0  0  0  0  0  0  0
   22.3767    2.0179    4.3785 H   0  0  0  0  0  0  0  0  0  0  0  0
   21.6759    0.6638    5.3072 H   0  0  0  0  0  0  0  0  0  0  0  0
   22.9654    4.5827    5.1997 H   0  0  0  0  0  0  0  0  0  0  0  0
   24.8522    6.1624    4.7352 H   0  0  0  0  0  0  0  0  0  0  0  0
   27.4027    3.8480    7.2609 H   0  0  0  0  0  0  0  0  0  0  0  0
   25.5047    2.2598    7.6973 H   0  0  0  0  0  0  0  0  0  0  0  0
   26.0155    0.0748    5.4916 H   0  0  0  0  0  0  0  0  0  0  0  0
   28.1830    0.1017    6.2724 H   0  0  0  0  0  0  0  0  0  0  0  0
   29.0664    4.1244    3.5507 H   0  0  0  0  0  0  0  0  0  0  0  0
   26.8325    3.0755    3.5083 H   0  0  0  0  0  0  0  0  0  0  0  0
   23.8839   -0.1113    6.6526 H   0  0  0  0  0  0  0  0  0  0  0  0
  1  2  1  0
  2  3  1  0
  3  4  1  0
  4  5  2  0
  4  6  2  0
  4  7  1  0
  7  8  2  0
  8  9  1  0
  9 10  2  0
 10 11  1  0
 11 12  2  0
 10 13  1  0
  2 14  1  0
 14 15  2  0
 14 16  1  0
 16 17  1  0
 17 18  2  0
 18 19  1  0
 19 20  2  0
 20 21  1  0
 21 22  2  0
 20 23  1  0
 23 24  3  0
 19 25  1  0
 25 26  1  0
 25 27  1  0
 25 28  1  0
  2 29  1  1
 12  7  1  0
 22 17  1  0
  1 30  1  0
  1 31  1  0
  1 32  1  0
  3 33  1  0
  3 34  1  0
  8 35  1  0
  9 36  1  0
 11 37  1  0
 12 38  1  0
 16 39  1  0
 18 40  1  0
 21 41  1  0
 22 42  1  0
 29 43  1  0
M  END
$$$$
