
     RDKit          3D

 49 52  0  0  0  0  0  0  0  0999 V2000
   30.2337    0.1280    3.0895 C   0  0  0  0  0  0  0  0  0  0  0  0
   29.7702    0.9620    4.2750 C   0  0  2  0  0  0  0  0  0  0  0  0
   28.9233    0.0331    5.0469 C   0  0  0  0  0  0  0  0  0  0  0  0
   27.7720   -0.3891    4.2074 C   0  0  0  0  0  0  0  0  0  0  0  0
   27.0381    0.8280    3.8007 C   0  0  1  0  0  0  0  0  0  0  0  0
   27.8780    1.8276    3.0177 C   0  0  1  0  0  0  0  0  0  0  0  0
   27.0128    2.9403    2.5154 C   0  0  0  0  0  0  0  0  0  0  0  0
   26.0129    3.4703    3.5343 C   0  0  0  0  0  0  0  0  0  0  0  0
   25.0780    2.2310    3.7511 C   0  0  0  0  0  0  0  0  0  0  0  0
   23.8409    2.3245    4.1924 C   0  0  0  0  0  0  0  0  0  0  0  0
   23.0517    1.1767    4.3693 C   0  0  0  0  0  0  0  0  0  0  0  0
   22.0053    1.1743    5.0063 O   0  0  0  0  0  0  0  0  0  0  0  0
   23.4351   -0.1692    3.7971 C   0  0  0  0  0  0  0  0  0  0  0  0
   24.8836   -0.2933    4.1404 C   0  0  0  0  0  0  0  0  0  0  0  0
   25.6165    0.8828    3.4231 C   0  0  2  0  0  0  0  0  0  0  0  0
   25.4498    0.5532    1.9329 C   0  0  0  0  0  0  0  0  0  0  0  0
   29.0298    2.2379    3.8546 C   0  0  2  0  0  0  0  0  0  0  0  0
   30.1494    2.5990    2.8114 C   0  0  0  0  0  0  0  0  0  0  0  0
   31.3855    2.5286    3.6746 C   0  0  0  0  0  0  0  0  0  0  0  0
   30.9596    1.5924    4.8708 C   0  0  2  0  0  0  0  0  0  0  0  0
   31.9124    0.6017    5.0658 O   0  0  0  0  0  0  0  0  0  0  0  0
   29.5545    0.0418    2.2467 H   0  0  0  0  0  0  0  0  0  0  0  0
   31.2456    0.3380    2.7799 H   0  0  0  0  0  0  0  0  0  0  0  0
   30.2697   -0.9633    3.4967 H   0  0  0  0  0  0  0  0  0  0  0  0
   29.4980   -0.8658    5.3313 H   0  0  0  0  0  0  0  0  0  0  0  0
   28.4824    0.5014    5.9682 H   0  0  0  0  0  0  0  0  0  0  0  0
   28.0495   -1.0096    3.2973 H   0  0  0  0  0  0  0  0  0  0  0  0
   27.0933   -0.9734    4.8817 H   0  0  0  0  0  0  0  0  0  0  0  0
   26.9913    1.4183    4.8486 H   0  0  0  0  0  0  0  0  0  0  0  0
   28.2668    1.3222    2.0787 H   0  0  0  0  0  0  0  0  0  0  0  0
   26.5761    2.7751    1.5446 H   0  0  0  0  0  0  0  0  0  0  0  0
   27.7204    3.8055    2.2834 H   0  0  0  0  0  0  0  0  0  0  0  0
   25.3617    4.1541    2.9145 H   0  0  0  0  0  0  0  0  0  0  0  0
   26.3882    3.8134    4.3912 H   0  0  0  0  0  0  0  0  0  0  0  0
   23.4634    3.2543    4.4490 H   0  0  0  0  0  0  0  0  0  0  0  0
   23.1290   -0.1838    2.7645 H   0  0  0  0  0  0  0  0  0  0  0  0
   22.8891   -1.0067    4.3243 H   0  0  0  0  0  0  0  0  0  0  0  0
   24.9511   -0.2846    5.2152 H   0  0  0  0  0  0  0  0  0  0  0  0
   25.2506   -1.2105    3.6267 H   0  0  0  0  0  0  0  0  0  0  0  0
   24.6490   -0.2302    1.8227 H   0  0  0  0  0  0  0  0  0  0  0  0
   26.3540   -0.0436    1.5482 H   0  0  0  0  0  0  0  0  0  0  0  0
   25.0901    1.3453    1.3098 H   0  0  0  0  0  0  0  0  0  0  0  0
   28.9748    2.9967    4.5387 H   0  0  0  0  0  0  0  0  0  0  0  0
   30.1049    1.8118    2.0740 H   0  0  0  0  0  0  0  0  0  0  0  0
   29.9083    3.5637    2.3825 H   0  0  0  0  0  0  0  0  0  0  0  0
   31.6650    3.5118    4.0636 H   0  0  0  0  0  0  0  0  0  0  0  0
   32.2479    1.9620    3.1848 H   0  0  0  0  0  0  0  0  0  0  0  0
   30.8431    2.2232    5.7399 H   0  0  0  0  0  0  0  0  0  0  0  0
   32.6607    0.9627    5.5799 H   0  0  0  0  0  0  0  0  0  0  0  0
  2  1  1  6
  2  3  1  0
  3  4  1  0
  4  5  1  0
  5  6  1  0
  6  7  1  0
  7  8  1  0
  8  9  1  0
  9 10  2  0
 10 11  1  0
 11 12  2  0
 11 13  1  0
 13 14  1  0
 14 15  1  0
 15 16  1  6
  6 17  1  0
 17 18  1  0
 18 19  1  0
 19 20  1  0
 20 21  1  0
 17  2  1  0
 20  2  1  0
 15  5  1  0
 15  9  1  0
  1 22  1  0
  1 23  1  0
  1 24  1  0
  3 25  1  0
  3 26  1  0
  4 27  1  0
  4 28  1  0
  5 29  1  1
  6 30  1  6
  7 31  1  0
  7 32  1  0
  8 33  1  0
  8 34  1  0
 10 35  1  0
 13 36  1  0
 13 37  1  0
 14 38  1  0
 14 39  1  0
 16 40  1  0
 16 41  1  0
 16 42  1  0
 17 43  1  1
 18 44  1  0
 18 45  1  0
 19 46  1  0
 19 47  1  0
 20 48  1  1
 21 49  1  0
M  END
$$$$
