
     RDKit          3D

 49 52  0  0  0  0  0  0  0  0999 V2000
   30.1170    0.3616    2.7165 C   0  0  0  0  0  0  0  0  0  0  0  0
   29.9127    0.9302    4.1277 C   0  0  2  0  0  0  0  0  0  0  0  0
   29.1959   -0.1006    4.9553 C   0  0  0  0  0  0  0  0  0  0  0  0
   27.8253   -0.2555    4.3634 C   0  0  0  0  0  0  0  0  0  0  0  0
   27.0438    0.9630    4.2063 C   0  0  1  0  0  0  0  0  0  0  0  0
   27.8407    1.9568    3.4391 C   0  0  1  0  0  0  0  0  0  0  0  0
   27.1804    3.2337    3.1475 C   0  0  0  0  0  0  0  0  0  0  0  0
   25.8451    2.9826    2.4207 C   0  0  0  0  0  0  0  0  0  0  0  0
   25.0185    2.0741    3.3014 C   0  0  0  0  0  0  0  0  0  0  0  0
   23.7447    2.5198    3.6084 C   0  0  0  0  0  0  0  0  0  0  0  0
   23.0621    1.5070    4.4418 C   0  0  0  0  0  0  0  0  0  0  0  0
   22.1946    2.0608    5.0961 O   0  0  0  0  0  0  0  0  0  0  0  0
   23.5348    0.1554    4.4042 C   0  0  0  0  0  0  0  0  0  0  0  0
   24.9270   -0.1539    4.4273 C   0  0  0  0  0  0  0  0  0  0  0  0
   25.6831    0.8027    3.4848 C   0  0  2  0  0  0  0  0  0  0  0  0
   25.9970    0.1521    2.1959 C   0  0  0  0  0  0  0  0  0  0  0  0
   29.2054    2.2373    4.0826 C   0  0  2  0  0  0  0  0  0  0  0  0
   30.1080    3.0022    3.2283 C   0  0  0  0  0  0  0  0  0  0  0  0
   31.5037    2.6537    3.8039 C   0  0  0  0  0  0  0  0  0  0  0  0
   31.2118    1.4102    4.6904 C   0  0  2  0  0  0  0  0  0  0  0  0
   32.2554    0.4961    4.4129 O   0  0  0  0  0  0  0  0  0  0  0  0
   30.9489   -0.3671    2.7628 H   0  0  0  0  0  0  0  0  0  0  0  0
   29.2470   -0.2105    2.3622 H   0  0  0  0  0  0  0  0  0  0  0  0
   30.4342    1.1347    2.0143 H   0  0  0  0  0  0  0  0  0  0  0  0
   29.0855    0.4151    5.9529 H   0  0  0  0  0  0  0  0  0  0  0  0
   29.7037   -1.0236    5.0367 H   0  0  0  0  0  0  0  0  0  0  0  0
   27.3614   -0.8617    5.2893 H   0  0  0  0  0  0  0  0  0  0  0  0
   27.8444   -1.0313    3.6140 H   0  0  0  0  0  0  0  0  0  0  0  0
   26.8194    1.4674    5.1874 H   0  0  0  0  0  0  0  0  0  0  0  0
   28.1365    1.5301    2.4148 H   0  0  0  0  0  0  0  0  0  0  0  0
   27.1090    3.7961    4.0916 H   0  0  0  0  0  0  0  0  0  0  0  0
   27.8449    3.8175    2.4390 H   0  0  0  0  0  0  0  0  0  0  0  0
   25.3651    4.0424    2.5295 H   0  0  0  0  0  0  0  0  0  0  0  0
   25.9517    2.8209    1.3925 H   0  0  0  0  0  0  0  0  0  0  0  0
   23.3290    3.3939    3.2129 H   0  0  0  0  0  0  0  0  0  0  0  0
   22.7529   -0.4835    3.9704 H   0  0  0  0  0  0  0  0  0  0  0  0
   23.2041   -0.2388    5.6123 H   0  0  0  0  0  0  0  0  0  0  0  0
   25.4126   -0.5700    5.1954 H   0  0  0  0  0  0  0  0  0  0  0  0
   24.8507   -1.1693    3.6906 H   0  0  0  0  0  0  0  0  0  0  0  0
   27.0270   -0.1485    2.0159 H   0  0  0  0  0  0  0  0  0  0  0  0
   25.3920   -0.7641    1.9454 H   0  0  0  0  0  0  0  0  0  0  0  0
   25.7608    0.8327    1.3251 H   0  0  0  0  0  0  0  0  0  0  0  0
   28.9911    2.5354    5.1265 H   0  0  0  0  0  0  0  0  0  0  0  0
   29.9521    3.0730    2.2240 H   0  0  0  0  0  0  0  0  0  0  0  0
   29.9444    4.1140    3.6734 H   0  0  0  0  0  0  0  0  0  0  0  0
   32.1300    2.3276    2.9454 H   0  0  0  0  0  0  0  0  0  0  0  0
   31.9136    3.4559    4.3926 H   0  0  0  0  0  0  0  0  0  0  0  0
   31.1853    1.6899    5.7069 H   0  0  0  0  0  0  0  0  0  0  0  0
   32.4713    0.0054    5.2270 H   0  0  0  0  0  0  0  0  0  0  0  0
  2  1  1  6
  2  3  1  0
  3  4  1  0
  4  5  1  0
  5  6  1  0
  6  7  1  0
  7  8  1  0
  8  9  1  0
  9 10  2  0
 10 11  1  0
 11 12  2  0
 11 13  1  0
 13 14  1  0
 14 15  1  0
 15 16  1  6
  6 17  1  0
 17 18  1  0
 18 19  1  0
 19 20  1  0
 20 21  1  0
 17  2  1  0
 20  2  1  0
 15  5  1  0
 15  9  1  0
  1 22  1  0
  1 23  1  0
  1 24  1  0
  3 25  1  0
  3 26  1  0
  4 27  1  0
  4 28  1  0
  5 29  1  1
  6 30  1  6
  7 31  1  0
  7 32  1  0
  8 33  1  0
  8 34  1  0
 10 35  1  0
 13 36  1  0
 13 37  1  0
 14 38  1  0
 14 39  1  0
 16 40  1  0
 16 41  1  0
 16 42  1  0
 17 43  1  1
 18 44  1  0
 18 45  1  0
 19 46  1  0
 19 47  1  0
 20 48  1  1
 21 49  1  0
M  END
$$$$
