
     RDKit          3D

 49 52  0  0  0  0  0  0  0  0999 V2000
   30.7547    0.3868    2.7283 C   0  0  0  0  0  0  0  0  0  0  0  0
   30.1560    0.8512    3.9940 C   0  0  2  0  0  0  0  0  0  0  0  0
   29.4006   -0.1804    4.7348 C   0  0  0  0  0  0  0  0  0  0  0  0
   28.0299   -0.3175    4.0640 C   0  0  0  0  0  0  0  0  0  0  0  0
   27.3085    1.0138    4.1163 C   0  0  1  0  0  0  0  0  0  0  0  0
   28.1467    1.9994    3.2745 C   0  0  1  0  0  0  0  0  0  0  0  0
   27.3615    3.3431    3.3107 C   0  0  0  0  0  0  0  0  0  0  0  0
   26.0493    3.1592    2.6128 C   0  0  0  0  0  0  0  0  0  0  0  0
   25.2251    2.0886    3.2693 C   0  0  0  0  0  0  0  0  0  0  0  0
   23.9766    2.3431    3.4961 C   0  0  0  0  0  0  0  0  0  0  0  0
   23.1203    1.3633    4.1056 C   0  0  0  0  0  0  0  0  0  0  0  0
   21.9863    1.6559    4.4491 O   0  0  0  0  0  0  0  0  0  0  0  0
   23.7363   -0.0246    4.2686 C   0  0  0  0  0  0  0  0  0  0  0  0
   25.1563    0.1186    4.6643 C   0  0  0  0  0  0  0  0  0  0  0  0
   25.9530    0.8502    3.4824 C   0  0  2  0  0  0  0  0  0  0  0  0
   25.8348   -0.0647    2.3120 C   0  0  0  0  0  0  0  0  0  0  0  0
   29.4662    2.1917    3.9399 C   0  0  2  0  0  0  0  0  0  0  0  0
   30.5387    2.8725    3.1065 C   0  0  0  0  0  0  0  0  0  0  0  0
   31.7665    2.5579    3.9794 C   0  0  0  0  0  0  0  0  0  0  0  0
   31.3107    1.4059    4.8816 C   0  0  2  0  0  0  0  0  0  0  0  0
   32.3077    0.5055    5.0700 O   0  0  0  0  0  0  0  0  0  0  0  0
   30.8964   -0.7231    2.7667 H   0  0  0  0  0  0  0  0  0  0  0  0
   31.7698    0.8743    2.5345 H   0  0  0  0  0  0  0  0  0  0  0  0
   30.1681    0.6204    1.7890 H   0  0  0  0  0  0  0  0  0  0  0  0
   29.3423    0.0455    5.7860 H   0  0  0  0  0  0  0  0  0  0  0  0
   29.8975   -1.1662    4.6148 H   0  0  0  0  0  0  0  0  0  0  0  0
   28.0685   -0.7231    3.0749 H   0  0  0  0  0  0  0  0  0  0  0  0
   27.4369   -0.9822    4.7725 H   0  0  0  0  0  0  0  0  0  0  0  0
   27.3090    1.3681    5.1116 H   0  0  0  0  0  0  0  0  0  0  0  0
   28.1375    1.6472    2.2639 H   0  0  0  0  0  0  0  0  0  0  0  0
   27.2896    3.7277    4.3313 H   0  0  0  0  0  0  0  0  0  0  0  0
   27.9444    4.0262    2.6593 H   0  0  0  0  0  0  0  0  0  0  0  0
   25.5015    4.1093    2.5116 H   0  0  0  0  0  0  0  0  0  0  0  0
   26.3314    2.8191    1.5511 H   0  0  0  0  0  0  0  0  0  0  0  0
   23.5924    3.3446    3.1852 H   0  0  0  0  0  0  0  0  0  0  0  0
   23.2289   -0.4218    5.2009 H   0  0  0  0  0  0  0  0  0  0  0  0
   23.5817   -0.7024    3.4777 H   0  0  0  0  0  0  0  0  0  0  0  0
   25.2632    0.8310    5.4916 H   0  0  0  0  0  0  0  0  0  0  0  0
   25.6394   -0.8066    4.9572 H   0  0  0  0  0  0  0  0  0  0  0  0
   24.7785   -0.1447    1.9369 H   0  0  0  0  0  0  0  0  0  0  0  0
   26.0771   -1.1207    2.5706 H   0  0  0  0  0  0  0  0  0  0  0  0
   26.4323    0.3491    1.4894 H   0  0  0  0  0  0  0  0  0  0  0  0
   29.4231    2.7079    4.8444 H   0  0  0  0  0  0  0  0  0  0  0  0
   30.6758    2.6381    2.0896 H   0  0  0  0  0  0  0  0  0  0  0  0
   30.3300    3.9904    3.1667 H   0  0  0  0  0  0  0  0  0  0  0  0
   32.6793    2.3099    3.4611 H   0  0  0  0  0  0  0  0  0  0  0  0
   31.8702    3.4127    4.7021 H   0  0  0  0  0  0  0  0  0  0  0  0
   30.8367    1.7632    5.7894 H   0  0  0  0  0  0  0  0  0  0  0  0
   32.5143   -0.0752    4.2980 H   0  0  0  0  0  0  0  0  0  0  0  0
  2  1  1  6
  2  3  1  0
  3  4  1  0
  4  5  1  0
  5  6  1  0
  6  7  1  0
  7  8  1  0
  8  9  1  0
  9 10  2  0
 10 11  1  0
 11 12  2  0
 11 13  1  0
 13 14  1  0
 14 15  1  0
 15 16  1  6
  6 17  1  0
 17 18  1  0
 18 19  1  0
 19 20  1  0
 20 21  1  0
 17  2  1  0
 20  2  1  0
 15  5  1  0
 15  9  1  0
  1 22  1  0
  1 23  1  0
  1 24  1  0
  3 25  1  0
  3 26  1  0
  4 27  1  0
  4 28  1  0
  5 29  1  1
  6 30  1  6
  7 31  1  0
  7 32  1  0
  8 33  1  0
  8 34  1  0
 10 35  1  0
 13 36  1  0
 13 37  1  0
 14 38  1  0
 14 39  1  0
 16 40  1  0
 16 41  1  0
 16 42  1  0
 17 43  1  1
 18 44  1  0
 18 45  1  0
 19 46  1  0
 19 47  1  0
 20 48  1  1
 21 49  1  0
M  END
$$$$
