
     RDKit          3D

 49 52  0  0  0  0  0  0  0  0999 V2000
   30.2240    0.4527    2.8360 C   0  0  0  0  0  0  0  0  0  0  0  0
   29.6424    0.9220    4.1628 C   0  0  2  0  0  0  0  0  0  0  0  0
   28.9364   -0.1144    4.9003 C   0  0  0  0  0  0  0  0  0  0  0  0
   27.5766   -0.2446    4.1465 C   0  0  0  0  0  0  0  0  0  0  0  0
   26.7988    1.0596    4.1187 C   0  0  1  0  0  0  0  0  0  0  0  0
   27.7076    2.0410    3.4298 C   0  0  1  0  0  0  0  0  0  0  0  0
   27.0330    3.3890    3.1383 C   0  0  0  0  0  0  0  0  0  0  0  0
   25.8107    3.0701    2.2135 C   0  0  0  0  0  0  0  0  0  0  0  0
   24.9678    2.1452    3.1445 C   0  0  0  0  0  0  0  0  0  0  0  0
   23.9856    2.6274    3.7497 C   0  0  0  0  0  0  0  0  0  0  0  0
   23.2119    1.7801    4.6557 C   0  0  0  0  0  0  0  0  0  0  0  0
   22.0279    1.9718    4.9750 O   0  0  0  0  0  0  0  0  0  0  0  0
   24.0081    0.5629    5.1802 C   0  0  0  0  0  0  0  0  0  0  0  0
   24.5587   -0.1072    3.9773 C   0  0  0  0  0  0  0  0  0  0  0  0
   25.6228    0.7578    3.2946 C   0  0  2  0  0  0  0  0  0  0  0  0
   25.8692    0.1519    1.9804 C   0  0  0  0  0  0  0  0  0  0  0  0
   28.9614    2.2488    4.1074 C   0  0  2  0  0  0  0  0  0  0  0  0
   30.0391    2.9500    3.3102 C   0  0  0  0  0  0  0  0  0  0  0  0
   31.3227    2.6317    4.1753 C   0  0  0  0  0  0  0  0  0  0  0  0
   30.8574    1.4051    5.0074 C   0  0  2  0  0  0  0  0  0  0  0  0
   31.8241    0.4669    4.8754 O   0  0  0  0  0  0  0  0  0  0  0  0
   30.1229    1.1100    2.0157 H   0  0  0  0  0  0  0  0  0  0  0  0
   31.2898    0.2118    2.9967 H   0  0  0  0  0  0  0  0  0  0  0  0
   29.7291   -0.5524    2.6111 H   0  0  0  0  0  0  0  0  0  0  0  0
   29.4820   -1.1244    4.6280 H   0  0  0  0  0  0  0  0  0  0  0  0
   28.9132   -0.0300    5.9703 H   0  0  0  0  0  0  0  0  0  0  0  0
   27.0288   -1.1082    4.5591 H   0  0  0  0  0  0  0  0  0  0  0  0
   27.8566   -0.4277    3.1070 H   0  0  0  0  0  0  0  0  0  0  0  0
   26.5425    1.3234    5.1012 H   0  0  0  0  0  0  0  0  0  0  0  0
   27.8522    1.6155    2.4198 H   0  0  0  0  0  0  0  0  0  0  0  0
   26.7029    3.9170    4.0396 H   0  0  0  0  0  0  0  0  0  0  0  0
   27.7712    3.9629    2.5082 H   0  0  0  0  0  0  0  0  0  0  0  0
   25.2555    3.9333    1.9383 H   0  0  0  0  0  0  0  0  0  0  0  0
   26.2091    2.4659    1.4108 H   0  0  0  0  0  0  0  0  0  0  0  0
   23.6978    3.7059    3.5555 H   0  0  0  0  0  0  0  0  0  0  0  0
   24.7484    1.0094    5.8706 H   0  0  0  0  0  0  0  0  0  0  0  0
   23.2277   -0.1189    5.6963 H   0  0  0  0  0  0  0  0  0  0  0  0
   25.0452   -1.0444    4.3372 H   0  0  0  0  0  0  0  0  0  0  0  0
   23.7142   -0.3824    3.2938 H   0  0  0  0  0  0  0  0  0  0  0  0
   26.5293    0.5924    1.3010 H   0  0  0  0  0  0  0  0  0  0  0  0
   26.1195   -0.9669    2.0786 H   0  0  0  0  0  0  0  0  0  0  0  0
   24.8330    0.0691    1.4308 H   0  0  0  0  0  0  0  0  0  0  0  0
   28.9323    2.6976    5.0770 H   0  0  0  0  0  0  0  0  0  0  0  0
   30.0743    2.8731    2.2745 H   0  0  0  0  0  0  0  0  0  0  0  0
   29.7818    4.0690    3.4941 H   0  0  0  0  0  0  0  0  0  0  0  0
   32.2316    2.4529    3.5921 H   0  0  0  0  0  0  0  0  0  0  0  0
   31.3069    3.5267    4.9157 H   0  0  0  0  0  0  0  0  0  0  0  0
   30.5444    1.7307    5.9763 H   0  0  0  0  0  0  0  0  0  0  0  0
   32.6375    0.7651    4.3761 H   0  0  0  0  0  0  0  0  0  0  0  0
  2  1  1  6
  2  3  1  0
  3  4  1  0
  4  5  1  0
  5  6  1  0
  6  7  1  0
  7  8  1  0
  8  9  1  0
  9 10  2  0
 10 11  1  0
 11 12  2  0
 11 13  1  0
 13 14  1  0
 14 15  1  0
 15 16  1  6
  6 17  1  0
 17 18  1  0
 18 19  1  0
 19 20  1  0
 20 21  1  0
 17  2  1  0
 20  2  1  0
 15  5  1  0
 15  9  1  0
  1 22  1  0
  1 23  1  0
  1 24  1  0
  3 25  1  0
  3 26  1  0
  4 27  1  0
  4 28  1  0
  5 29  1  1
  6 30  1  6
  7 31  1  0
  7 32  1  0
  8 33  1  0
  8 34  1  0
 10 35  1  0
 13 36  1  0
 13 37  1  0
 14 38  1  0
 14 39  1  0
 16 40  1  0
 16 41  1  0
 16 42  1  0
 17 43  1  1
 18 44  1  0
 18 45  1  0
 19 46  1  0
 19 47  1  0
 20 48  1  1
 21 49  1  0
M  END
$$$$
