
     RDKit          3D

 49 52  0  0  0  0  0  0  0  0999 V2000
   30.3824    0.2827    2.6365 C   0  0  0  0  0  0  0  0  0  0  0  0
   29.9798    0.8572    3.9786 C   0  0  2  0  0  0  0  0  0  0  0  0
   29.1878   -0.1806    4.7194 C   0  0  0  0  0  0  0  0  0  0  0  0
   27.8522   -0.3141    4.0913 C   0  0  0  0  0  0  0  0  0  0  0  0
   27.1232    1.0526    4.0940 C   0  0  1  0  0  0  0  0  0  0  0  0
   27.9970    2.0027    3.2650 C   0  0  1  0  0  0  0  0  0  0  0  0
   27.2456    3.3571    3.2380 C   0  0  0  0  0  0  0  0  0  0  0  0
   25.9492    3.1599    2.5223 C   0  0  0  0  0  0  0  0  0  0  0  0
   25.0927    2.1314    3.1290 C   0  0  0  0  0  0  0  0  0  0  0  0
   23.8117    2.3524    3.3020 C   0  0  0  0  0  0  0  0  0  0  0  0
   22.9847    1.3204    3.8743 C   0  0  0  0  0  0  0  0  0  0  0  0
   21.7760    1.6024    4.2486 O   0  0  0  0  0  0  0  0  0  0  0  0
   23.5352   -0.0692    4.0177 C   0  0  0  0  0  0  0  0  0  0  0  0
   24.9857    0.1078    4.4939 C   0  0  0  0  0  0  0  0  0  0  0  0
   25.7933    0.8681    3.4090 C   0  0  2  0  0  0  0  0  0  0  0  0
   25.8121   -0.0876    2.2637 C   0  0  0  0  0  0  0  0  0  0  0  0
   29.3195    2.1860    3.9381 C   0  0  2  0  0  0  0  0  0  0  0  0
   30.3681    2.8459    3.0390 C   0  0  0  0  0  0  0  0  0  0  0  0
   31.6481    2.5592    3.7578 C   0  0  0  0  0  0  0  0  0  0  0  0
   31.2398    1.3584    4.7114 C   0  0  2  0  0  0  0  0  0  0  0  0
   32.2025    0.3473    4.4816 O   0  0  0  0  0  0  0  0  0  0  0  0
   31.4528    0.0348    2.5991 H   0  0  0  0  0  0  0  0  0  0  0  0
   29.8372   -0.7040    2.5199 H   0  0  0  0  0  0  0  0  0  0  0  0
   30.1726    0.8792    1.7687 H   0  0  0  0  0  0  0  0  0  0  0  0
   29.6980   -1.1341    4.6180 H   0  0  0  0  0  0  0  0  0  0  0  0
   29.0956    0.0937    5.7822 H   0  0  0  0  0  0  0  0  0  0  0  0
   27.2408   -0.9612    4.7926 H   0  0  0  0  0  0  0  0  0  0  0  0
   27.9158   -0.6834    3.0381 H   0  0  0  0  0  0  0  0  0  0  0  0
   27.0405    1.4120    5.0584 H   0  0  0  0  0  0  0  0  0  0  0  0
   27.9681    1.7058    2.2296 H   0  0  0  0  0  0  0  0  0  0  0  0
   27.8569    4.0645    2.6560 H   0  0  0  0  0  0  0  0  0  0  0  0
   27.0902    3.6935    4.3281 H   0  0  0  0  0  0  0  0  0  0  0  0
   26.2328    2.7543    1.5136 H   0  0  0  0  0  0  0  0  0  0  0  0
   25.4036    4.1113    2.4309 H   0  0  0  0  0  0  0  0  0  0  0  0
   23.4229    3.3156    3.0418 H   0  0  0  0  0  0  0  0  0  0  0  0
   23.0288   -0.4843    4.8647 H   0  0  0  0  0  0  0  0  0  0  0  0
   23.4492   -0.6243    3.0881 H   0  0  0  0  0  0  0  0  0  0  0  0
   25.3670   -0.8710    4.6826 H   0  0  0  0  0  0  0  0  0  0  0  0
   24.9878    0.7703    5.3677 H   0  0  0  0  0  0  0  0  0  0  0  0
   26.5714    0.0914    1.4951 H   0  0  0  0  0  0  0  0  0  0  0  0
   25.9080   -1.1667    2.6582 H   0  0  0  0  0  0  0  0  0  0  0  0
   24.8506   -0.0298    1.7111 H   0  0  0  0  0  0  0  0  0  0  0  0
   29.2716    2.7041    4.8742 H   0  0  0  0  0  0  0  0  0  0  0  0
   30.4272    2.5327    2.0448 H   0  0  0  0  0  0  0  0  0  0  0  0
   30.1961    3.9563    3.0079 H   0  0  0  0  0  0  0  0  0  0  0  0
   31.8091    3.3887    4.4938 H   0  0  0  0  0  0  0  0  0  0  0  0
   32.4836    2.3032    3.1987 H   0  0  0  0  0  0  0  0  0  0  0  0
   31.0998    1.5845    5.7255 H   0  0  0  0  0  0  0  0  0  0  0  0
   32.8903    0.5771    3.8529 H   0  0  0  0  0  0  0  0  0  0  0  0
  2  1  1  6
  2  3  1  0
  3  4  1  0
  4  5  1  0
  5  6  1  0
  6  7  1  0
  7  8  1  0
  8  9  1  0
  9 10  2  0
 10 11  1  0
 11 12  2  0
 11 13  1  0
 13 14  1  0
 14 15  1  0
 15 16  1  6
  6 17  1  0
 17 18  1  0
 18 19  1  0
 19 20  1  0
 20 21  1  0
 17  2  1  0
 20  2  1  0
 15  5  1  0
 15  9  1  0
  1 22  1  0
  1 23  1  0
  1 24  1  0
  3 25  1  0
  3 26  1  0
  4 27  1  0
  4 28  1  0
  5 29  1  1
  6 30  1  6
  7 31  1  0
  7 32  1  0
  8 33  1  0
  8 34  1  0
 10 35  1  0
 13 36  1  0
 13 37  1  0
 14 38  1  0
 14 39  1  0
 16 40  1  0
 16 41  1  0
 16 42  1  0
 17 43  1  1
 18 44  1  0
 18 45  1  0
 19 46  1  0
 19 47  1  0
 20 48  1  1
 21 49  1  0
M  END
$$$$
