
     RDKit          3D

 49 52  0  0  0  0  0  0  0  0999 V2000
   30.3287    1.4718    4.2703 C   0  0  0  0  0  0  0  0  0  0  0  0
   29.7300    1.9362    5.5360 C   0  0  2  0  0  0  0  0  0  0  0  0
   28.9746    0.9046    6.2768 C   0  0  0  0  0  0  0  0  0  0  0  0
   27.6039    0.7675    5.6060 C   0  0  0  0  0  0  0  0  0  0  0  0
   26.8825    2.0988    5.6583 C   0  0  1  0  0  0  0  0  0  0  0  0
   27.7207    3.0844    4.8165 C   0  0  1  0  0  0  0  0  0  0  0  0
   26.9355    4.4281    4.8527 C   0  0  0  0  0  0  0  0  0  0  0  0
   25.6233    4.2442    4.1548 C   0  0  0  0  0  0  0  0  0  0  0  0
   24.7991    3.1736    4.8113 C   0  0  0  0  0  0  0  0  0  0  0  0
   23.5506    3.4281    5.0381 C   0  0  0  0  0  0  0  0  0  0  0  0
   22.6943    2.4483    5.6476 C   0  0  0  0  0  0  0  0  0  0  0  0
   21.5603    2.7409    5.9911 O   0  0  0  0  0  0  0  0  0  0  0  0
   23.3103    1.0604    5.8106 C   0  0  0  0  0  0  0  0  0  0  0  0
   24.7303    1.2036    6.2063 C   0  0  0  0  0  0  0  0  0  0  0  0
   25.5270    1.9352    5.0244 C   0  0  2  0  0  0  0  0  0  0  0  0
   25.4088    1.0203    3.8540 C   0  0  0  0  0  0  0  0  0  0  0  0
   29.0402    3.2767    5.4819 C   0  0  2  0  0  0  0  0  0  0  0  0
   30.1127    3.9575    4.6485 C   0  0  0  0  0  0  0  0  0  0  0  0
   31.3405    3.6429    5.5214 C   0  0  0  0  0  0  0  0  0  0  0  0
   30.8847    2.4909    6.4236 C   0  0  2  0  0  0  0  0  0  0  0  0
   31.8817    1.5905    6.6120 O   0  0  0  0  0  0  0  0  0  0  0  0
   30.4704    0.3619    4.3087 H   0  0  0  0  0  0  0  0  0  0  0  0
   31.3438    1.9593    4.0765 H   0  0  0  0  0  0  0  0  0  0  0  0
   29.7421    1.7054    3.3310 H   0  0  0  0  0  0  0  0  0  0  0  0
   28.9163    1.1305    7.3280 H   0  0  0  0  0  0  0  0  0  0  0  0
   29.4715   -0.0812    6.1568 H   0  0  0  0  0  0  0  0  0  0  0  0
   27.6425    0.3619    4.6169 H   0  0  0  0  0  0  0  0  0  0  0  0
   27.0109    0.1028    6.3145 H   0  0  0  0  0  0  0  0  0  0  0  0
   26.8830    2.4531    6.6536 H   0  0  0  0  0  0  0  0  0  0  0  0
   27.7115    2.7322    3.8059 H   0  0  0  0  0  0  0  0  0  0  0  0
   26.8636    4.8127    5.8733 H   0  0  0  0  0  0  0  0  0  0  0  0
   27.5184    5.1112    4.2013 H   0  0  0  0  0  0  0  0  0  0  0  0
   25.0755    5.1943    4.0536 H   0  0  0  0  0  0  0  0  0  0  0  0
   25.9054    3.9041    3.0931 H   0  0  0  0  0  0  0  0  0  0  0  0
   23.1664    4.4296    4.7272 H   0  0  0  0  0  0  0  0  0  0  0  0
   22.8029    0.6632    6.7429 H   0  0  0  0  0  0  0  0  0  0  0  0
   23.1557    0.3826    5.0197 H   0  0  0  0  0  0  0  0  0  0  0  0
   24.8372    1.9160    7.0336 H   0  0  0  0  0  0  0  0  0  0  0  0
   25.2134    0.2784    6.4992 H   0  0  0  0  0  0  0  0  0  0  0  0
   24.3525    0.9403    3.4789 H   0  0  0  0  0  0  0  0  0  0  0  0
   25.6511   -0.0357    4.1126 H   0  0  0  0  0  0  0  0  0  0  0  0
   26.0063    1.4341    3.0314 H   0  0  0  0  0  0  0  0  0  0  0  0
   28.9971    3.7929    6.3864 H   0  0  0  0  0  0  0  0  0  0  0  0
   30.2498    3.7231    3.6316 H   0  0  0  0  0  0  0  0  0  0  0  0
   29.9040    5.0754    4.7087 H   0  0  0  0  0  0  0  0  0  0  0  0
   32.2533    3.3949    5.0031 H   0  0  0  0  0  0  0  0  0  0  0  0
   31.4442    4.4977    6.2441 H   0  0  0  0  0  0  0  0  0  0  0  0
   30.4107    2.8482    7.3314 H   0  0  0  0  0  0  0  0  0  0  0  0
   32.0883    1.0098    5.8400 H   0  0  0  0  0  0  0  0  0  0  0  0
  2  1  1  6
  2  3  1  0
  3  4  1  0
  4  5  1  0
  5  6  1  0
  6  7  1  0
  7  8  1  0
  8  9  1  0
  9 10  2  0
 10 11  1  0
 11 12  2  0
 11 13  1  0
 13 14  1  0
 14 15  1  0
 15 16  1  6
  6 17  1  0
 17 18  1  0
 18 19  1  0
 19 20  1  0
 20 21  1  0
 17  2  1  0
 20  2  1  0
 15  5  1  0
 15  9  1  0
  1 22  1  0
  1 23  1  0
  1 24  1  0
  3 25  1  0
  3 26  1  0
  4 27  1  0
  4 28  1  0
  5 29  1  1
  6 30  1  6
  7 31  1  0
  7 32  1  0
  8 33  1  0
  8 34  1  0
 10 35  1  0
 13 36  1  0
 13 37  1  0
 14 38  1  0
 14 39  1  0
 16 40  1  0
 16 41  1  0
 16 42  1  0
 17 43  1  1
 18 44  1  0
 18 45  1  0
 19 46  1  0
 19 47  1  0
 20 48  1  1
 21 49  1  0
M  END
$$$$
