56069
  -OEChem-08312613483D

 43 44  0     1  0  0  0  0  0999 V2000
    3.8579    1.3085    0.9309 S   0  0  0  0  0  0  0  0  0  0  0  0
    7.3011   -2.8037   -1.4675 F   0  0  0  0  0  0  0  0  0  0  0  0
   -3.8929   -2.4513    1.3231 F   0  0  0  0  0  0  0  0  0  0  0  0
   -5.8347   -1.5389    1.6409 F   0  0  0  0  0  0  0  0  0  0  0  0
   -5.4280   -2.6070   -0.2092 F   0  0  0  0  0  0  0  0  0  0  0  0
    1.0749    2.5870    0.7771 O   0  0  0  0  0  0  0  0  0  0  0  0
    4.3420    1.5346    2.2804 O   0  0  0  0  0  0  0  0  0  0  0  0
    3.7560    2.4116   -0.0072 O   0  0  0  0  0  0  0  0  0  0  0  0
   -0.3349   -0.4647    0.9229 O   0  0  0  0  0  0  0  0  0  0  0  0
   -1.1932    1.3253   -0.3183 N   0  0  0  0  0  0  0  0  0  0  0  0
   -7.7751   -0.1906   -0.8579 N   0  0  0  0  0  0  0  0  0  0  0  0
    1.1868    1.2727    0.2313 C   0  0  2  0  0  0  0  0  0  0  0  0
    2.2701    0.5342    1.0229 C   0  0  0  0  0  0  0  0  0  0  0  0
    1.6113    1.4233   -1.2334 C   0  0  0  0  0  0  0  0  0  0  0  0
   -0.1964    0.6012    0.3262 C   0  0  0  0  0  0  0  0  0  0  0  0
    4.8926    0.0709    0.2094 C   0  0  0  0  0  0  0  0  0  0  0  0
   -2.5667    0.9999   -0.4255 C   0  0  0  0  0  0  0  0  0  0  0  0
    5.0208    0.0155   -1.1679 C   0  0  0  0  0  0  0  0  0  0  0  0
    5.5575   -0.8199    1.0346 C   0  0  0  0  0  0  0  0  0  0  0  0
   -3.0350   -0.1646    0.1600 C   0  0  0  0  0  0  0  0  0  0  0  0
    5.8387   -0.9605   -1.7372 C   0  0  0  0  0  0  0  0  0  0  0  0
    6.3755   -1.7957    0.4652 C   0  0  0  0  0  0  0  0  0  0  0  0
   -3.4126    1.8536   -1.1134 C   0  0  0  0  0  0  0  0  0  0  0  0
   -4.3885   -0.4847    0.0540 C   0  0  0  0  0  0  0  0  0  0  0  0
    6.5163   -1.8661   -0.9207 C   0  0  0  0  0  0  0  0  0  0  0  0
   -5.2542    0.3643   -0.6355 C   0  0  0  0  0  0  0  0  0  0  0  0
   -4.7662    1.5335   -1.2191 C   0  0  0  0  0  0  0  0  0  0  0  0
   -4.8760   -1.7459    0.6925 C   0  0  0  0  0  0  0  0  0  0  0  0
   -6.6468    0.0577   -0.7584 C   0  0  0  0  0  0  0  0  0  0  0  0
    2.0061    0.5034    2.0869 H   0  0  0  0  0  0  0  0  0  0  0  0
    2.3650   -0.5036    0.6863 H   0  0  0  0  0  0  0  0  0  0  0  0
    2.0705    2.3844   -1.4785 H   0  0  0  0  0  0  0  0  0  0  0  0
    0.7497    1.3706   -1.9103 H   0  0  0  0  0  0  0  0  0  0  0  0
    2.2471    0.5967   -1.5612 H   0  0  0  0  0  0  0  0  0  0  0  0
   -0.9299    2.1982   -0.7686 H   0  0  0  0  0  0  0  0  0  0  0  0
    0.5379    3.1306    0.1771 H   0  0  0  0  0  0  0  0  0  0  0  0
    4.5166    0.7172   -1.8235 H   0  0  0  0  0  0  0  0  0  0  0  0
    5.4549   -0.7867    2.1148 H   0  0  0  0  0  0  0  0  0  0  0  0
   -2.4112   -0.8557    0.7040 H   0  0  0  0  0  0  0  0  0  0  0  0
    5.9510   -1.0138   -2.8161 H   0  0  0  0  0  0  0  0  0  0  0  0
    6.9016   -2.5022    1.1005 H   0  0  0  0  0  0  0  0  0  0  0  0
   -3.0428    2.7665   -1.5718 H   0  0  0  0  0  0  0  0  0  0  0  0
   -5.4275    2.2063   -1.7602 H   0  0  0  0  0  0  0  0  0  0  0  0
  1  7  2  0  0  0  0
  1  8  2  0  0  0  0
  1 13  1  0  0  0  0
  1 16  1  0  0  0  0
  2 25  1  0  0  0  0
  3 28  1  0  0  0  0
  4 28  1  0  0  0  0
  5 28  1  0  0  0  0
  6 12  1  0  0  0  0
  6 36  1  0  0  0  0
  9 15  2  0  0  0  0
 10 15  1  0  0  0  0
 10 17  1  0  0  0  0
 10 35  1  0  0  0  0
 11 29  3  0  0  0  0
 12 13  1  0  0  0  0
 12 14  1  0  0  0  0
 12 15  1  0  0  0  0
 13 30  1  0  0  0  0
 13 31  1  0  0  0  0
 14 32  1  0  0  0  0
 14 33  1  0  0  0  0
 14 34  1  0  0  0  0
 16 18  2  0  0  0  0
 16 19  1  0  0  0  0
 17 20  2  0  0  0  0
 17 23  1  0  0  0  0
 18 21  1  0  0  0  0
 18 37  1  0  0  0  0
 19 22  2  0  0  0  0
 19 38  1  0  0  0  0
 20 24  1  0  0  0  0
 20 39  1  0  0  0  0
 21 25  2  0  0  0  0
 21 40  1  0  0  0  0
 22 25  1  0  0  0  0
 22 41  1  0  0  0  0
 23 27  2  0  0  0  0
 23 42  1  0  0  0  0
 24 26  2  0  0  0  0
 24 28  1  0  0  0  0
 26 27  1  0  0  0  0
 26 29  1  0  0  0  0
 27 43  1  0  0  0  0
M  END
> <PUBCHEM_COMPOUND_CID>
56069

> <PUBCHEM_CONFORMER_RMSD>
0.8

> <PUBCHEM_CONFORMER_DIVERSEORDER>
1
100
15
91
6
97
104
68
82
81
21
89
43
105
85
54
75
49
90
96
63
37
30
106
58
83
98
22
41
64
39
61
95
92
12
84
74
32
5
48
103
66
67
78
59
72
24
45
53
86
46
99
2
42
14
87
50
79
93
44
40
60
38
88
76
80
69
47
9
16
73
29
13
18
71
25
56
23
101
55
57
31
94
3
26
52
70
102
10
65
7
17
8
19
77
51
20
4
34
28
27
35
33
11
36
62

> <PUBCHEM_MMFF94_PARTIAL_CHARGES>
37
1 1.2
10 -0.55
11 -0.56
12 0.34
13 0.11
15 0.57
16 -0.01
17 0.12
18 -0.15
19 -0.15
2 -0.19
20 -0.15
21 -0.15
22 -0.15
23 -0.15
24 -0.14
25 0.19
26 0.07
27 -0.15
28 1.16
29 0.48
3 -0.34
35 0.37
36 0.4
37 0.15
38 0.15
39 0.15
4 -0.34
40 0.15
41 0.15
42 0.15
43 0.15
5 -0.34
6 -0.68
7 -0.65
8 -0.65
9 -0.57

> <PUBCHEM_EFFECTIVE_ROTOR_COUNT>
7

> <PUBCHEM_PHARMACOPHORE_FEATURES>
9
1 10 donor
1 11 acceptor
1 6 acceptor
1 6 donor
1 7 acceptor
1 8 acceptor
1 9 acceptor
6 16 18 19 21 22 25 rings
6 17 20 23 24 26 27 rings

> <PUBCHEM_HEAVY_ATOM_COUNT>
29

> <PUBCHEM_ATOM_DEF_STEREO_COUNT>
1

> <PUBCHEM_ATOM_UDEF_STEREO_COUNT>
0

> <PUBCHEM_BOND_DEF_STEREO_COUNT>
0

> <PUBCHEM_BOND_UDEF_STEREO_COUNT>
0

> <PUBCHEM_ISOTOPIC_ATOM_COUNT>
0

> <PUBCHEM_COMPONENT_COUNT>
1

> <PUBCHEM_CACTVS_TAUTO_COUNT>
2

> <PUBCHEM_CONFORMER_ID>
0000DB050000005B

> <PUBCHEM_MMFF94_ENERGY>
70.5519

> <PUBCHEM_FEATURE_SELFOVERLAP>
45.698

> <PUBCHEM_SHAPE_FINGERPRINT>
10 15 11455885875486289695
10638233 991 14851605474901894348
11181472 205 14346895472242789357
11393246 34 18341890827434899319
11524674 6 17917989491012781151
11545043 162 18412823573205100936
117089 54 17842571639396596126
12166972 35 18334576841015460572
12616971 3 15913329108709004160
13533116 47 17560795542316910976
1361 4 18195247938671449262
13685833 64 18201717336798842372
13782708 43 18342738576410962863
13914758 101 17274825727801845657
14117953 113 17894900825187568773
14444916 359 18187370909565379587
14528608 73 16153429446008229436
15131766 46 16555909108782226217
15183329 4 17676771989658675830
15352257 5 18408604742783846542
15510800 12 18059583417543372550
15629462 23 18201444623555962017
15799311 1 18113624438847259970
16990350 14 16678644950127945773
17844677 252 18334013916773560713
18927931 339 17967812774014410627
19377110 9 14620796006852487124
19958102 18 17894899759255339895
20105231 36 17676496029995136211
2026 5 18200309914244317054
20511986 3 13182746896821793445
21130935 74 17988075707766949939
21150785 3 16298390162546427836
21267235 1 18040435499902166589
21279426 13 18334289868463857722
21623969 137 17918274247111987782
21682296 61 18202285779477378231
21781051 124 17895485799090004275
21781055 127 18263377897936289677
22061861 79 18272087205872809580
2303208 19 18411981377341532888
23081809 10 17203614817266819481
23559900 14 18189046655158727909
25122255 55 18413109463291796366
2748736 6 8862947143393063470
3004659 81 17894345592330554476
3089732 80 18411986857994609106
34797466 226 18334852853052058020
3663271 9 13614231577888804286
4340502 62 12607401092443490748
439807 62 18260831458332392962
465052 167 18131355198618399156
504579 68 16588019104329364735
5104073 3 15338546258204082046
58902169 19 16515689922978808070
59682541 52 15141243166836518666
59755656 215 18261387828295514651
86090 222 17774176621405968902
8863177 126 18340769333773845474
9962374 69 17774707741398099390

> <PUBCHEM_SHAPE_MULTIPOLES>
538.12
21.45
2.56
1.51
2.02
0.67
0.09
13.22
-4.97
-0.73
0.13
-1.47
0.09
3.32

> <PUBCHEM_SHAPE_SELFOVERLAP>
1144.369

> <PUBCHEM_SHAPE_VOLUME>
302.2

> <PUBCHEM_COORDINATE_TYPE>
2
5
10

$$$$
