56069
  -OEChem-08312613113D

 43 44  0     1  0  0  0  0  0999 V2000
   -3.0754   -0.4699   -0.2435 S   0  0  0  0  0  0  0  0  0  0  0  0
   -8.9343   -0.0519   -0.3745 F   0  0  0  0  0  0  0  0  0  0  0  0
    5.7039    2.3708   -0.5333 F   0  0  0  0  0  0  0  0  0  0  0  0
    6.9423    0.9152    0.4924 F   0  0  0  0  0  0  0  0  0  0  0  0
    6.5365    0.6891   -1.6320 F   0  0  0  0  0  0  0  0  0  0  0  0
   -1.2572    1.9850   -0.3862 O   0  0  0  0  0  0  0  0  0  0  0  0
   -2.7548   -1.8267    0.1602 O   0  0  0  0  0  0  0  0  0  0  0  0
   -2.5591    0.0671   -1.4893 O   0  0  0  0  0  0  0  0  0  0  0  0
   -0.3236   -0.9783    0.9057 O   0  0  0  0  0  0  0  0  0  0  0  0
    1.1484    0.7863    0.4578 N   0  0  0  0  0  0  0  0  0  0  0  0
    7.0643   -2.4286   -0.3018 N   0  0  0  0  0  0  0  0  0  0  0  0
   -1.2173    1.2600    0.8429 C   0  0  2  0  0  0  0  0  0  0  0  0
   -2.5985    0.6331    1.0547 C   0  0  0  0  0  0  0  0  0  0  0  0
   -0.9175    2.2690    1.9564 C   0  0  0  0  0  0  0  0  0  0  0  0
   -0.0881    0.2170    0.7410 C   0  0  0  0  0  0  0  0  0  0  0  0
   -4.8376   -0.3433   -0.2820 C   0  0  0  0  0  0  0  0  0  0  0  0
    2.3891    0.1239    0.2974 C   0  0  0  0  0  0  0  0  0  0  0  0
   -5.4296    0.6085   -1.0946 C   0  0  0  0  0  0  0  0  0  0  0  0
   -5.5944   -1.1992    0.4999 C   0  0  0  0  0  0  0  0  0  0  0  0
    3.5230    0.8674    0.0157 C   0  0  0  0  0  0  0  0  0  0  0  0
   -6.8207    0.7073   -1.1260 C   0  0  0  0  0  0  0  0  0  0  0  0
   -6.9854   -1.1005    0.4682 C   0  0  0  0  0  0  0  0  0  0  0  0
    2.4419   -1.2539    0.4260 C   0  0  0  0  0  0  0  0  0  0  0  0
    4.7452    0.2141   -0.1422 C   0  0  0  0  0  0  0  0  0  0  0  0
   -7.5985   -0.1473   -0.3448 C   0  0  0  0  0  0  0  0  0  0  0  0
    4.8160   -1.1733   -0.0160 C   0  0  0  0  0  0  0  0  0  0  0  0
    3.6644   -1.9072    0.2682 C   0  0  0  0  0  0  0  0  0  0  0  0
    5.9589    1.0332   -0.4460 C   0  0  0  0  0  0  0  0  0  0  0  0
    6.0580   -1.8668   -0.1738 C   0  0  0  0  0  0  0  0  0  0  0  0
   -2.6611    0.0832    1.9995 H   0  0  0  0  0  0  0  0  0  0  0  0
   -3.3505    1.4311    1.0673 H   0  0  0  0  0  0  0  0  0  0  0  0
   -1.7204    3.0116    2.0325 H   0  0  0  0  0  0  0  0  0  0  0  0
    0.0001    2.8380    1.7732 H   0  0  0  0  0  0  0  0  0  0  0  0
   -0.8161    1.7687    2.9255 H   0  0  0  0  0  0  0  0  0  0  0  0
    1.1921    1.7948    0.3407 H   0  0  0  0  0  0  0  0  0  0  0  0
   -0.4635    2.5413   -0.4503 H   0  0  0  0  0  0  0  0  0  0  0  0
   -4.8408    1.2869   -1.7041 H   0  0  0  0  0  0  0  0  0  0  0  0
   -5.1360   -1.9423    1.1450 H   0  0  0  0  0  0  0  0  0  0  0  0
    3.4548    1.9477   -0.0801 H   0  0  0  0  0  0  0  0  0  0  0  0
   -7.2985    1.4506   -1.7574 H   0  0  0  0  0  0  0  0  0  0  0  0
   -7.5914   -1.7642    1.0778 H   0  0  0  0  0  0  0  0  0  0  0  0
    1.5995   -1.8930    0.6436 H   0  0  0  0  0  0  0  0  0  0  0  0
    3.7035   -2.9895    0.3695 H   0  0  0  0  0  0  0  0  0  0  0  0
  1  7  2  0  0  0  0
  1  8  2  0  0  0  0
  1 13  1  0  0  0  0
  1 16  1  0  0  0  0
  2 25  1  0  0  0  0
  3 28  1  0  0  0  0
  4 28  1  0  0  0  0
  5 28  1  0  0  0  0
  6 12  1  0  0  0  0
  6 36  1  0  0  0  0
  9 15  2  0  0  0  0
 10 15  1  0  0  0  0
 10 17  1  0  0  0  0
 10 35  1  0  0  0  0
 11 29  3  0  0  0  0
 12 13  1  0  0  0  0
 12 14  1  0  0  0  0
 12 15  1  0  0  0  0
 13 30  1  0  0  0  0
 13 31  1  0  0  0  0
 14 32  1  0  0  0  0
 14 33  1  0  0  0  0
 14 34  1  0  0  0  0
 16 18  2  0  0  0  0
 16 19  1  0  0  0  0
 17 20  2  0  0  0  0
 17 23  1  0  0  0  0
 18 21  1  0  0  0  0
 18 37  1  0  0  0  0
 19 22  2  0  0  0  0
 19 38  1  0  0  0  0
 20 24  1  0  0  0  0
 20 39  1  0  0  0  0
 21 25  2  0  0  0  0
 21 40  1  0  0  0  0
 22 25  1  0  0  0  0
 22 41  1  0  0  0  0
 23 27  2  0  0  0  0
 23 42  1  0  0  0  0
 24 26  2  0  0  0  0
 24 28  1  0  0  0  0
 26 27  1  0  0  0  0
 26 29  1  0  0  0  0
 27 43  1  0  0  0  0
M  END
> <PUBCHEM_COMPOUND_CID>
56069

> <PUBCHEM_CONFORMER_RMSD>
0.8

> <PUBCHEM_CONFORMER_DIVERSEORDER>
1
100
15
91
6
97
104
68
82
81
21
89
43
105
85
54
75
49
90
96
63
37
30
106
58
83
98
22
41
64
39
61
95
92
12
84
74
32
5
48
103
66
67
78
59
72
24
45
53
86
46
99
2
42
14
87
50
79
93
44
40
60
38
88
76
80
69
47
9
16
73
29
13
18
71
25
56
23
101
55
57
31
94
3
26
52
70
102
10
65
7
17
8
19
77
51
20
4
34
28
27
35
33
11
36
62

> <PUBCHEM_MMFF94_PARTIAL_CHARGES>
37
1 1.2
10 -0.55
11 -0.56
12 0.34
13 0.11
15 0.57
16 -0.01
17 0.12
18 -0.15
19 -0.15
2 -0.19
20 -0.15
21 -0.15
22 -0.15
23 -0.15
24 -0.14
25 0.19
26 0.07
27 -0.15
28 1.16
29 0.48
3 -0.34
35 0.37
36 0.4
37 0.15
38 0.15
39 0.15
4 -0.34
40 0.15
41 0.15
42 0.15
43 0.15
5 -0.34
6 -0.68
7 -0.65
8 -0.65
9 -0.57

> <PUBCHEM_EFFECTIVE_ROTOR_COUNT>
7

> <PUBCHEM_PHARMACOPHORE_FEATURES>
9
1 10 donor
1 11 acceptor
1 6 acceptor
1 6 donor
1 7 acceptor
1 8 acceptor
1 9 acceptor
6 16 18 19 21 22 25 rings
6 17 20 23 24 26 27 rings

> <PUBCHEM_HEAVY_ATOM_COUNT>
29

> <PUBCHEM_ATOM_DEF_STEREO_COUNT>
1

> <PUBCHEM_ATOM_UDEF_STEREO_COUNT>
0

> <PUBCHEM_BOND_DEF_STEREO_COUNT>
0

> <PUBCHEM_BOND_UDEF_STEREO_COUNT>
0

> <PUBCHEM_ISOTOPIC_ATOM_COUNT>
0

> <PUBCHEM_COMPONENT_COUNT>
1

> <PUBCHEM_CACTVS_TAUTO_COUNT>
2

> <PUBCHEM_CONFORMER_ID>
0000DB050000000F

> <PUBCHEM_MMFF94_ENERGY>
63.2191

> <PUBCHEM_FEATURE_SELFOVERLAP>
45.715

> <PUBCHEM_SHAPE_FINGERPRINT>
10299344 5 18202002127537771759
106641 1 10375859793400260527
11578080 2 13119152368479223878
11646440 116 12901543542000322327
11719270 70 18411413995531228842
12166972 35 18260833695878433676
12236239 1 18342461421680663664
12516196 113 17775000211174758545
12592606 108 18060696222184255831
12760667 363 18060415786104099979
12788726 201 17917715669108096425
13533116 47 18343862200101274098
14123256 10 18343864433120102136
14251764 18 17989208144877598905
14347424 109 9583520898208599750
14840074 17 17203325603017166807
14933364 13 18187364337811215919
15064986 266 18336276651631666177
15082195 135 18260557757658263428
15183329 4 18408884010700813483
15475509 35 14404633048389200454
15537594 2 17917424341445052407
15849732 13 18259703415579436735
16994733 274 16009021753680393229
18006028 8 17561363993896715081
18335252 98 18186524328150019771
20157964 124 18260829302574944690
20281389 69 8934998170167474586
20554085 129 14923939072218504928
21033648 29 14129628856390394444
21150785 3 18334293180548410985
21236236 1 18202003175863636089
21267235 1 18343585113990270259
21403212 168 9295297118478197601
21792934 111 17988631974440101025
22224240 67 12540693730649828849
23198884 109 17240201019810549481
23522609 53 17773061767421794976
23559900 14 18270392910168412929
2838139 119 12901542472996615639
29717793 49 18271808987008972974
3004659 81 18334290950780058490
335352 9 18201433697902224781
3633792 109 18261673683843260297
4073 2 17603872242539100523
4098825 35 18260263010836520797
4149490 64 17749104487432030810
4325135 7 18341895203905885524
439807 62 18341895168965833682
504579 68 18339654395076996108
5219985 9 17418091023090471513
5283156 175 18273214179827463746
54039377 194 17988084379707309054
5758199 1 13840263672479646137

> <PUBCHEM_SHAPE_MULTIPOLES>
538.12
23.3
2.05
1.14
9.4
0.07
-0.01
-4.89
6.63
-2.8
-0.35
0.52
0.46
-0.11

> <PUBCHEM_SHAPE_SELFOVERLAP>
1144.731

> <PUBCHEM_SHAPE_VOLUME>
301.8

> <PUBCHEM_COORDINATE_TYPE>
2
5
10

$$$$
