56069
  -OEChem-08312613103D

 43 44  0     1  0  0  0  0  0999 V2000
    3.7217    1.0687    0.1979 S   0  0  0  0  0  0  0  0  0  0  0  0
   -1.8624    2.7844    0.8244 F   0  0  0  0  0  0  0  0  0  0  0  0
   -2.8684    1.5516   -1.8253 F   0  0  0  0  0  0  0  0  0  0  0  0
   -4.5240    0.1538   -1.7274 F   0  0  0  0  0  0  0  0  0  0  0  0
   -4.0684    1.4170   -0.0169 F   0  0  0  0  0  0  0  0  0  0  0  0
    3.3956   -2.3379   -1.8748 O   0  0  0  0  0  0  0  0  0  0  0  0
    4.4804    2.2337   -0.2191 O   0  0  0  0  0  0  0  0  0  0  0  0
    4.1017    0.3329    1.3901 O   0  0  0  0  0  0  0  0  0  0  0  0
    2.0658   -2.2053    1.1692 O   0  0  0  0  0  0  0  0  0  0  0  0
    0.9946   -1.2864   -0.6989 N   0  0  0  0  0  0  0  0  0  0  0  0
   -5.5255   -1.4668    1.1359 N   0  0  0  0  0  0  0  0  0  0  0  0
    3.4262   -1.5254   -0.7014 C   0  0  2  0  0  0  0  0  0  0  0  0
    3.6663   -0.0797   -1.1465 C   0  0  0  0  0  0  0  0  0  0  0  0
    4.5947   -2.0151    0.1604 C   0  0  0  0  0  0  0  0  0  0  0  0
    2.0902   -1.7162    0.0416 C   0  0  0  0  0  0  0  0  0  0  0  0
    2.0418    1.5840    0.3855 C   0  0  0  0  0  0  0  0  0  0  0  0
   -0.3694   -1.3156   -0.3216 C   0  0  0  0  0  0  0  0  0  0  0  0
    1.2090    0.8780    1.2366 C   0  0  0  0  0  0  0  0  0  0  0  0
    1.5894    2.6852   -0.3211 C   0  0  0  0  0  0  0  0  0  0  0  0
   -1.2314   -0.3533   -0.8202 C   0  0  0  0  0  0  0  0  0  0  0  0
   -0.1167    1.2857    1.3858 C   0  0  0  0  0  0  0  0  0  0  0  0
    0.2638    3.0930   -0.1717 C   0  0  0  0  0  0  0  0  0  0  0  0
   -0.8125   -2.3066    0.5383 C   0  0  0  0  0  0  0  0  0  0  0  0
   -2.5754   -0.3825   -0.4481 C   0  0  0  0  0  0  0  0  0  0  0  0
   -0.5892    2.3933    0.6818 C   0  0  0  0  0  0  0  0  0  0  0  0
   -3.0380   -1.3739    0.4172 C   0  0  0  0  0  0  0  0  0  0  0  0
   -2.1565   -2.3360    0.9103 C   0  0  0  0  0  0  0  0  0  0  0  0
   -3.4913    0.6645   -0.9964 C   0  0  0  0  0  0  0  0  0  0  0  0
   -4.4122   -1.4253    0.8143 C   0  0  0  0  0  0  0  0  0  0  0  0
    4.6371   -0.0105   -1.6544 H   0  0  0  0  0  0  0  0  0  0  0  0
    2.9408    0.2765   -1.8843 H   0  0  0  0  0  0  0  0  0  0  0  0
    5.5477   -1.5831   -0.1663 H   0  0  0  0  0  0  0  0  0  0  0  0
    4.7166   -3.1005    0.0451 H   0  0  0  0  0  0  0  0  0  0  0  0
    4.4877   -1.8586    1.2356 H   0  0  0  0  0  0  0  0  0  0  0  0
    1.1855   -0.7328   -1.5295 H   0  0  0  0  0  0  0  0  0  0  0  0
    3.2835   -3.2644   -1.6014 H   0  0  0  0  0  0  0  0  0  0  0  0
    1.5700    0.0749    1.8669 H   0  0  0  0  0  0  0  0  0  0  0  0
    2.2350    3.2378   -0.9965 H   0  0  0  0  0  0  0  0  0  0  0  0
   -0.8640    0.3971   -1.5153 H   0  0  0  0  0  0  0  0  0  0  0  0
   -0.7713    0.7646    2.0787 H   0  0  0  0  0  0  0  0  0  0  0  0
   -0.1057    3.9534   -0.7218 H   0  0  0  0  0  0  0  0  0  0  0  0
   -0.1627   -3.0890    0.9154 H   0  0  0  0  0  0  0  0  0  0  0  0
   -2.5026   -3.1196    1.5803 H   0  0  0  0  0  0  0  0  0  0  0  0
  1  7  2  0  0  0  0
  1  8  2  0  0  0  0
  1 13  1  0  0  0  0
  1 16  1  0  0  0  0
  2 25  1  0  0  0  0
  3 28  1  0  0  0  0
  4 28  1  0  0  0  0
  5 28  1  0  0  0  0
  6 12  1  0  0  0  0
  6 36  1  0  0  0  0
  9 15  2  0  0  0  0
 10 15  1  0  0  0  0
 10 17  1  0  0  0  0
 10 35  1  0  0  0  0
 11 29  3  0  0  0  0
 12 13  1  0  0  0  0
 12 14  1  0  0  0  0
 12 15  1  0  0  0  0
 13 30  1  0  0  0  0
 13 31  1  0  0  0  0
 14 32  1  0  0  0  0
 14 33  1  0  0  0  0
 14 34  1  0  0  0  0
 16 18  2  0  0  0  0
 16 19  1  0  0  0  0
 17 20  2  0  0  0  0
 17 23  1  0  0  0  0
 18 21  1  0  0  0  0
 18 37  1  0  0  0  0
 19 22  2  0  0  0  0
 19 38  1  0  0  0  0
 20 24  1  0  0  0  0
 20 39  1  0  0  0  0
 21 25  2  0  0  0  0
 21 40  1  0  0  0  0
 22 25  1  0  0  0  0
 22 41  1  0  0  0  0
 23 27  2  0  0  0  0
 23 42  1  0  0  0  0
 24 26  2  0  0  0  0
 24 28  1  0  0  0  0
 26 27  1  0  0  0  0
 26 29  1  0  0  0  0
 27 43  1  0  0  0  0
M  END
> <PUBCHEM_COMPOUND_CID>
56069

> <PUBCHEM_CONFORMER_RMSD>
0.8

> <PUBCHEM_CONFORMER_DIVERSEORDER>
1
100
15
91
6
97
104
68
82
81
21
89
43
105
85
54
75
49
90
96
63
37
30
106
58
83
98
22
41
64
39
61
95
92
12
84
74
32
5
48
103
66
67
78
59
72
24
45
53
86
46
99
2
42
14
87
50
79
93
44
40
60
38
88
76
80
69
47
9
16
73
29
13
18
71
25
56
23
101
55
57
31
94
3
26
52
70
102
10
65
7
17
8
19
77
51
20
4
34
28
27
35
33
11
36
62

> <PUBCHEM_MMFF94_PARTIAL_CHARGES>
37
1 1.2
10 -0.55
11 -0.56
12 0.34
13 0.11
15 0.57
16 -0.01
17 0.12
18 -0.15
19 -0.15
2 -0.19
20 -0.15
21 -0.15
22 -0.15
23 -0.15
24 -0.14
25 0.19
26 0.07
27 -0.15
28 1.16
29 0.48
3 -0.34
35 0.37
36 0.4
37 0.15
38 0.15
39 0.15
4 -0.34
40 0.15
41 0.15
42 0.15
43 0.15
5 -0.34
6 -0.68
7 -0.65
8 -0.65
9 -0.57

> <PUBCHEM_EFFECTIVE_ROTOR_COUNT>
7

> <PUBCHEM_PHARMACOPHORE_FEATURES>
9
1 10 donor
1 11 acceptor
1 6 acceptor
1 6 donor
1 7 acceptor
1 8 acceptor
1 9 acceptor
6 16 18 19 21 22 25 rings
6 17 20 23 24 26 27 rings

> <PUBCHEM_HEAVY_ATOM_COUNT>
29

> <PUBCHEM_ATOM_DEF_STEREO_COUNT>
1

> <PUBCHEM_ATOM_UDEF_STEREO_COUNT>
0

> <PUBCHEM_BOND_DEF_STEREO_COUNT>
0

> <PUBCHEM_BOND_UDEF_STEREO_COUNT>
0

> <PUBCHEM_ISOTOPIC_ATOM_COUNT>
0

> <PUBCHEM_COMPONENT_COUNT>
1

> <PUBCHEM_CACTVS_TAUTO_COUNT>
2

> <PUBCHEM_CONFORMER_ID>
0000DB0500000064

> <PUBCHEM_MMFF94_ENERGY>
77.1779

> <PUBCHEM_FEATURE_SELFOVERLAP>
45.693

> <PUBCHEM_SHAPE_FINGERPRINT>
104564 63 18130232562079917560
1100329 8 17041760885682074362
11112241 14 17129281332906791736
11513181 2 17917433081771721406
12166972 35 17894640244731211798
12422481 6 17772496528772322937
12553582 1 18271524307575404224
12633257 1 18191020308141443003
12788726 201 17917722248829981385
13140716 1 18198063569296754728
13224815 77 18202005425734960642
13402501 40 18336828683841245047
14251757 17 18335416859360965185
14790565 3 18123759647397669417
15081414 286 18341900731223158712
1601671 61 18269838769377304344
17093844 170 18339633469701261736
17357779 13 18058726901572952238
18785283 64 17974859667900165465
20691752 17 18190178992583035904
20905425 154 18272096010824798308
21279426 13 18339082592948141941
22182313 1 18411693292325828977
23558518 356 18054787286917906960
23559900 14 18338514141263453250
23566358 2 18410015454724652182
238 59 17621007169079313350
350125 39 18335426785774178211
3524813 1 18261672691964394791
46194498 28 17824267213849112725
508706 21 18041544855199327421
5265222 85 17543924850607353452
6287921 2 17825676826352728557
9709674 26 18272089340761686580

> <PUBCHEM_SHAPE_MULTIPOLES>
538.12
9.12
3.52
1.38
3.27
1.13
0.24
-2.62
0.52
-1.17
-0.26
0.29
-0.08
1.31

> <PUBCHEM_SHAPE_SELFOVERLAP>
1153.321

> <PUBCHEM_SHAPE_VOLUME>
299

> <PUBCHEM_COORDINATE_TYPE>
2
5
10

$$$$
