56069
  -OEChem-08312613093D

 43 44  0     1  0  0  0  0  0999 V2000
    2.8871   -0.9225   -0.6534 S   0  0  0  0  0  0  0  0  0  0  0  0
    6.4072    3.7166    0.1247 F   0  0  0  0  0  0  0  0  0  0  0  0
   -3.7964    2.2664    2.0565 F   0  0  0  0  0  0  0  0  0  0  0  0
   -4.6708    2.8792    0.1687 F   0  0  0  0  0  0  0  0  0  0  0  0
   -5.7134    1.4504    1.4337 F   0  0  0  0  0  0  0  0  0  0  0  0
    2.0972   -3.6484    0.4859 O   0  0  0  0  0  0  0  0  0  0  0  0
    1.7432   -0.4645   -1.4204 O   0  0  0  0  0  0  0  0  0  0  0  0
    3.6986   -2.0263   -1.1331 O   0  0  0  0  0  0  0  0  0  0  0  0
   -0.1166   -3.0294   -0.7776 O   0  0  0  0  0  0  0  0  0  0  0  0
   -0.6802   -1.2912    0.6861 N   0  0  0  0  0  0  0  0  0  0  0  0
   -6.5994    0.8460   -1.8248 N   0  0  0  0  0  0  0  0  0  0  0  0
    1.3987   -2.5282    1.0293 C   0  0  2  0  0  0  0  0  0  0  0  0
    2.3458   -1.3256    0.9818 C   0  0  0  0  0  0  0  0  0  0  0  0
    1.0502   -2.8706    2.4817 C   0  0  0  0  0  0  0  0  0  0  0  0
    0.1165   -2.3223    0.2005 C   0  0  0  0  0  0  0  0  0  0  0  0
    3.9457    0.4728   -0.4181 C   0  0  0  0  0  0  0  0  0  0  0  0
   -1.9173   -0.8374    0.1691 C   0  0  0  0  0  0  0  0  0  0  0  0
    5.2968    0.2669   -0.1973 C   0  0  0  0  0  0  0  0  0  0  0  0
    3.4051    1.7466   -0.4603 C   0  0  0  0  0  0  0  0  0  0  0  0
   -2.5689    0.2125    0.7943 C   0  0  0  0  0  0  0  0  0  0  0  0
    6.1326    1.3684   -0.0131 C   0  0  0  0  0  0  0  0  0  0  0  0
    4.2410    2.8480   -0.2764 C   0  0  0  0  0  0  0  0  0  0  0  0
   -2.4492   -1.4533   -0.9514 C   0  0  0  0  0  0  0  0  0  0  0  0
   -3.7881    0.6594    0.2844 C   0  0  0  0  0  0  0  0  0  0  0  0
    5.6048    2.6589   -0.0529 C   0  0  0  0  0  0  0  0  0  0  0  0
   -4.3376    0.0499   -0.8435 C   0  0  0  0  0  0  0  0  0  0  0  0
   -3.6680   -1.0063   -1.4615 C   0  0  0  0  0  0  0  0  0  0  0  0
   -4.4772    1.7940    0.9726 C   0  0  0  0  0  0  0  0  0  0  0  0
   -5.5872    0.4897   -1.3856 C   0  0  0  0  0  0  0  0  0  0  0  0
    1.8760   -0.4284    1.3976 H   0  0  0  0  0  0  0  0  0  0  0  0
    3.2553   -1.5420    1.5549 H   0  0  0  0  0  0  0  0  0  0  0  0
    1.9397   -3.2091    3.0254 H   0  0  0  0  0  0  0  0  0  0  0  0
    0.3260   -3.6926    2.5243 H   0  0  0  0  0  0  0  0  0  0  0  0
    0.6234   -2.0196    3.0218 H   0  0  0  0  0  0  0  0  0  0  0  0
   -0.3514   -0.7853    1.5045 H   0  0  0  0  0  0  0  0  0  0  0  0
    1.5417   -4.4375    0.6066 H   0  0  0  0  0  0  0  0  0  0  0  0
    5.7248   -0.7299   -0.1561 H   0  0  0  0  0  0  0  0  0  0  0  0
    2.3452    1.9142   -0.6250 H   0  0  0  0  0  0  0  0  0  0  0  0
   -2.1300    0.6791    1.6722 H   0  0  0  0  0  0  0  0  0  0  0  0
    7.1942    1.2216    0.1628 H   0  0  0  0  0  0  0  0  0  0  0  0
    3.8301    3.8529   -0.3051 H   0  0  0  0  0  0  0  0  0  0  0  0
   -1.9957   -2.2738   -1.4866 H   0  0  0  0  0  0  0  0  0  0  0  0
   -4.0839   -1.4915   -2.3417 H   0  0  0  0  0  0  0  0  0  0  0  0
  1  7  2  0  0  0  0
  1  8  2  0  0  0  0
  1 13  1  0  0  0  0
  1 16  1  0  0  0  0
  2 25  1  0  0  0  0
  3 28  1  0  0  0  0
  4 28  1  0  0  0  0
  5 28  1  0  0  0  0
  6 12  1  0  0  0  0
  6 36  1  0  0  0  0
  9 15  2  0  0  0  0
 10 15  1  0  0  0  0
 10 17  1  0  0  0  0
 10 35  1  0  0  0  0
 11 29  3  0  0  0  0
 12 13  1  0  0  0  0
 12 14  1  0  0  0  0
 12 15  1  0  0  0  0
 13 30  1  0  0  0  0
 13 31  1  0  0  0  0
 14 32  1  0  0  0  0
 14 33  1  0  0  0  0
 14 34  1  0  0  0  0
 16 18  2  0  0  0  0
 16 19  1  0  0  0  0
 17 20  2  0  0  0  0
 17 23  1  0  0  0  0
 18 21  1  0  0  0  0
 18 37  1  0  0  0  0
 19 22  2  0  0  0  0
 19 38  1  0  0  0  0
 20 24  1  0  0  0  0
 20 39  1  0  0  0  0
 21 25  2  0  0  0  0
 21 40  1  0  0  0  0
 22 25  1  0  0  0  0
 22 41  1  0  0  0  0
 23 27  2  0  0  0  0
 23 42  1  0  0  0  0
 24 26  2  0  0  0  0
 24 28  1  0  0  0  0
 26 27  1  0  0  0  0
 26 29  1  0  0  0  0
 27 43  1  0  0  0  0
M  END
> <PUBCHEM_COMPOUND_CID>
56069

> <PUBCHEM_CONFORMER_RMSD>
0.8

> <PUBCHEM_CONFORMER_DIVERSEORDER>
1
100
15
91
6
97
104
68
82
81
21
89
43
105
85
54
75
49
90
96
63
37
30
106
58
83
98
22
41
64
39
61
95
92
12
84
74
32
5
48
103
66
67
78
59
72
24
45
53
86
46
99
2
42
14
87
50
79
93
44
40
60
38
88
76
80
69
47
9
16
73
29
13
18
71
25
56
23
101
55
57
31
94
3
26
52
70
102
10
65
7
17
8
19
77
51
20
4
34
28
27
35
33
11
36
62

> <PUBCHEM_MMFF94_PARTIAL_CHARGES>
37
1 1.2
10 -0.55
11 -0.56
12 0.34
13 0.11
15 0.57
16 -0.01
17 0.12
18 -0.15
19 -0.15
2 -0.19
20 -0.15
21 -0.15
22 -0.15
23 -0.15
24 -0.14
25 0.19
26 0.07
27 -0.15
28 1.16
29 0.48
3 -0.34
35 0.37
36 0.4
37 0.15
38 0.15
39 0.15
4 -0.34
40 0.15
41 0.15
42 0.15
43 0.15
5 -0.34
6 -0.68
7 -0.65
8 -0.65
9 -0.57

> <PUBCHEM_EFFECTIVE_ROTOR_COUNT>
7

> <PUBCHEM_PHARMACOPHORE_FEATURES>
9
1 10 donor
1 11 acceptor
1 6 acceptor
1 6 donor
1 7 acceptor
1 8 acceptor
1 9 acceptor
6 16 18 19 21 22 25 rings
6 17 20 23 24 26 27 rings

> <PUBCHEM_HEAVY_ATOM_COUNT>
29

> <PUBCHEM_ATOM_DEF_STEREO_COUNT>
1

> <PUBCHEM_ATOM_UDEF_STEREO_COUNT>
0

> <PUBCHEM_BOND_DEF_STEREO_COUNT>
0

> <PUBCHEM_BOND_UDEF_STEREO_COUNT>
0

> <PUBCHEM_ISOTOPIC_ATOM_COUNT>
0

> <PUBCHEM_COMPONENT_COUNT>
1

> <PUBCHEM_CACTVS_TAUTO_COUNT>
2

> <PUBCHEM_CONFORMER_ID>
0000DB0500000001

> <PUBCHEM_MMFF94_ENERGY>
56.6927

> <PUBCHEM_FEATURE_SELFOVERLAP>
45.705

> <PUBCHEM_SHAPE_FINGERPRINT>
10074138 170 16444200891968002795
10319926 262 14707205470386019651
10937287 8 18410012182387431658
11135609 201 18337677532651067739
13103583 49 12107776394057322918
13590594 115 17759522171327035314
14251764 30 8646506115302935784
14251764 38 18050854609209628780
14251764 75 18341059561524737937
14848178 96 18408886265273969364
14931854 50 18202284722989906500
14932701 244 18120655992107202871
15021287 119 17979636728206445187
15064981 113 17560251327227288668
15142526 21 18259989274974321987
18608769 82 18268151049209867163
19752476 56 18341337721329800454
20511986 3 18272922813219830477
21033648 144 18260546706279766199
21033648 29 16805605816058881399
21315763 76 18408879646360400108
21401589 2 18188215419524068674
22122407 14 17974580087495000617
22950370 63 9078847289973362190
23522609 53 17702956829795595065
23559900 14 16987156011737607951
23569914 2 17170922939534211101
23845131 108 17894345596626068227
2748736 6 18410004472984523368
283562 15 17973159827045362714
2838139 119 18271527589352067188
312425 83 17774454784213067086
3472631 163 18272374122831605877
393628 179 17986097738152927104
474 4 18407476665259850626
484985 159 8573344589583121422
5104073 3 18040719164320760026
543368 44 18341893009219879773
56633871 153 8141820390521890401
6328613 192 18043819895672252188
633830 44 18411140207991908158
7288768 16 18114748247469143138
9981440 41 18193840573200711826

> <PUBCHEM_SHAPE_MULTIPOLES>
538.12
15.66
4.06
1.59
1.29
0.4
0.43
-17.02
-2.67
-4.06
1.29
1.87
0.43
-1.3

> <PUBCHEM_SHAPE_SELFOVERLAP>
1143.285

> <PUBCHEM_SHAPE_VOLUME>
302.4

> <PUBCHEM_COORDINATE_TYPE>
2
5
10

$$$$
