644019
  -OEChem-08312613523D

 53 54  0     1  0  0  0  0  0999 V2000
   -0.3282   -2.5676   -0.8987 O   0  0  0  0  0  0  0  0  0  0  0  0
   -0.0906    2.2205   -0.7863 O   0  0  0  0  0  0  0  0  0  0  0  0
   -2.2286   -0.9077    0.5552 C   0  0  1  0  0  0  0  0  0  0  0  0
   -1.7522   -0.1003   -0.6836 C   0  0  1  0  0  0  0  0  0  0  0  0
   -2.2645   -0.0403    1.8223 C   0  0  0  0  0  0  0  0  0  0  0  0
   -3.0700    1.2519    1.6532 C   0  0  0  0  0  0  0  0  0  0  0  0
   -2.2687    1.3211   -0.7118 C   0  0  0  0  0  0  0  0  0  0  0  0
   -0.2361   -0.1722   -0.8390 C   0  0  0  0  0  0  0  0  0  0  0  0
   -2.8735    1.9299    0.3227 C   0  0  0  0  0  0  0  0  0  0  0  0
   -3.5683   -1.5424    0.2950 C   0  0  0  0  0  0  0  0  0  0  0  0
    0.3911   -1.4109   -0.9383 C   0  0  0  0  0  0  0  0  0  0  0  0
    0.5110    1.0016   -0.8813 C   0  0  0  0  0  0  0  0  0  0  0  0
   -3.4015    3.3304    0.2148 C   0  0  0  0  0  0  0  0  0  0  0  0
   -3.8252   -2.8508    0.9820 C   0  0  0  0  0  0  0  0  0  0  0  0
    2.5300   -0.3029   -1.1247 C   0  0  0  0  0  0  0  0  0  0  0  0
    1.7771   -1.4764   -1.0814 C   0  0  0  0  0  0  0  0  0  0  0  0
    1.8969    0.9361   -1.0245 C   0  0  0  0  0  0  0  0  0  0  0  0
    4.0118   -0.3731   -1.2776 C   0  0  0  0  0  0  0  0  0  0  0  0
   -4.4805   -0.9705   -0.5049 C   0  0  0  0  0  0  0  0  0  0  0  0
    4.7753    0.7893   -0.6169 C   0  0  0  0  0  0  0  0  0  0  0  0
    4.5882    0.8352    0.9028 C   0  0  0  0  0  0  0  0  0  0  0  0
    5.0626   -0.4623    1.5582 C   0  0  0  0  0  0  0  0  0  0  0  0
    4.8440   -0.4385    3.0627 C   0  0  0  0  0  0  0  0  0  0  0  0
   -1.5416   -1.7217    0.8006 H   0  0  0  0  0  0  0  0  0  0  0  0
   -2.1327   -0.5651   -1.6059 H   0  0  0  0  0  0  0  0  0  0  0  0
   -1.2322    0.2292    2.0854 H   0  0  0  0  0  0  0  0  0  0  0  0
   -2.6560   -0.6028    2.6787 H   0  0  0  0  0  0  0  0  0  0  0  0
   -2.7866    1.9377    2.4611 H   0  0  0  0  0  0  0  0  0  0  0  0
   -4.1383    1.0393    1.7835 H   0  0  0  0  0  0  0  0  0  0  0  0
   -2.2351    1.8329   -1.6740 H   0  0  0  0  0  0  0  0  0  0  0  0
   -3.2377    3.7593   -0.7794 H   0  0  0  0  0  0  0  0  0  0  0  0
   -2.9056    3.9802    0.9431 H   0  0  0  0  0  0  0  0  0  0  0  0
   -4.4785    3.3452    0.4111 H   0  0  0  0  0  0  0  0  0  0  0  0
   -3.0924   -3.5990    0.6624 H   0  0  0  0  0  0  0  0  0  0  0  0
   -3.7551   -2.7365    2.0683 H   0  0  0  0  0  0  0  0  0  0  0  0
   -4.8211   -3.2462    0.7555 H   0  0  0  0  0  0  0  0  0  0  0  0
    2.2644   -2.4453   -1.1602 H   0  0  0  0  0  0  0  0  0  0  0  0
    2.4486    1.8682   -1.0803 H   0  0  0  0  0  0  0  0  0  0  0  0
    4.3988   -1.3358   -0.9274 H   0  0  0  0  0  0  0  0  0  0  0  0
    4.2304   -0.3460   -2.3536 H   0  0  0  0  0  0  0  0  0  0  0  0
   -5.4362   -1.4636   -0.6650 H   0  0  0  0  0  0  0  0  0  0  0  0
   -4.3699   -0.0348   -1.0301 H   0  0  0  0  0  0  0  0  0  0  0  0
    4.5181    1.7572   -1.0594 H   0  0  0  0  0  0  0  0  0  0  0  0
    5.8434    0.6518   -0.8320 H   0  0  0  0  0  0  0  0  0  0  0  0
    5.1727    1.6742    1.3003 H   0  0  0  0  0  0  0  0  0  0  0  0
    3.5452    1.0318    1.1709 H   0  0  0  0  0  0  0  0  0  0  0  0
   -1.2118   -2.4202   -1.2726 H   0  0  0  0  0  0  0  0  0  0  0  0
    0.5871    2.9165   -0.8305 H   0  0  0  0  0  0  0  0  0  0  0  0
    6.1259   -0.6231    1.3470 H   0  0  0  0  0  0  0  0  0  0  0  0
    4.5159   -1.3271    1.1718 H   0  0  0  0  0  0  0  0  0  0  0  0
    3.7824   -0.3221    3.3035 H   0  0  0  0  0  0  0  0  0  0  0  0
    5.1936   -1.3733    3.5121 H   0  0  0  0  0  0  0  0  0  0  0  0
    5.3941    0.3871    3.5254 H   0  0  0  0  0  0  0  0  0  0  0  0
  1 11  1  0  0  0  0
  1 47  1  0  0  0  0
  2 12  1  0  0  0  0
  2 48  1  0  0  0  0
  3  4  1  0  0  0  0
  3  5  1  0  0  0  0
  3 10  1  0  0  0  0
  3 24  1  0  0  0  0
  4  7  1  0  0  0  0
  4  8  1  0  0  0  0
  4 25  1  0  0  0  0
  5  6  1  0  0  0  0
  5 26  1  0  0  0  0
  5 27  1  0  0  0  0
  6  9  1  0  0  0  0
  6 28  1  0  0  0  0
  6 29  1  0  0  0  0
  7  9  2  0  0  0  0
  7 30  1  0  0  0  0
  8 11  2  0  0  0  0
  8 12  1  0  0  0  0
  9 13  1  0  0  0  0
 10 14  1  0  0  0  0
 10 19  2  0  0  0  0
 11 16  1  0  0  0  0
 12 17  2  0  0  0  0
 13 31  1  0  0  0  0
 13 32  1  0  0  0  0
 13 33  1  0  0  0  0
 14 34  1  0  0  0  0
 14 35  1  0  0  0  0
 14 36  1  0  0  0  0
 15 16  2  0  0  0  0
 15 17  1  0  0  0  0
 15 18  1  0  0  0  0
 16 37  1  0  0  0  0
 17 38  1  0  0  0  0
 18 20  1  0  0  0  0
 18 39  1  0  0  0  0
 18 40  1  0  0  0  0
 19 41  1  0  0  0  0
 19 42  1  0  0  0  0
 20 21  1  0  0  0  0
 20 43  1  0  0  0  0
 20 44  1  0  0  0  0
 21 22  1  0  0  0  0
 21 45  1  0  0  0  0
 21 46  1  0  0  0  0
 22 23  1  0  0  0  0
 22 49  1  0  0  0  0
 22 50  1  0  0  0  0
 23 51  1  0  0  0  0
 23 52  1  0  0  0  0
 23 53  1  0  0  0  0
M  END
> <PUBCHEM_COMPOUND_CID>
644019

> <PUBCHEM_CONFORMER_RMSD>
0.8

> <PUBCHEM_CONFORMER_DIVERSEORDER>
2
16
18
14
12
24
25
27
1
10
21
8
5
23
11
6
4
7
17
3
9
28
19
22
20
15
26
13

> <PUBCHEM_MMFF94_PARTIAL_CHARGES>
25
1 -0.53
10 -0.28
11 0.08
12 0.08
13 0.14
14 0.14
15 -0.14
16 -0.15
17 -0.15
18 0.14
19 -0.3
2 -0.53
3 0.14
30 0.15
37 0.15
38 0.15
4 0.28
41 0.15
42 0.15
47 0.45
48 0.45
6 0.14
7 -0.29
8 -0.14
9 -0.28

> <PUBCHEM_EFFECTIVE_ROTOR_COUNT>
6.8

> <PUBCHEM_PHARMACOPHORE_FEATURES>
6
1 1 donor
1 2 donor
1 23 hydrophobe
4 18 20 21 22 hydrophobe
6 3 4 5 6 7 9 rings
6 8 11 12 15 16 17 rings

> <PUBCHEM_HEAVY_ATOM_COUNT>
23

> <PUBCHEM_ATOM_DEF_STEREO_COUNT>
2

> <PUBCHEM_ATOM_UDEF_STEREO_COUNT>
0

> <PUBCHEM_BOND_DEF_STEREO_COUNT>
0

> <PUBCHEM_BOND_UDEF_STEREO_COUNT>
0

> <PUBCHEM_ISOTOPIC_ATOM_COUNT>
0

> <PUBCHEM_COMPONENT_COUNT>
1

> <PUBCHEM_CACTVS_TAUTO_COUNT>
10

> <PUBCHEM_CONFORMER_ID>
0009D3B300000010

> <PUBCHEM_MMFF94_ENERGY>
62.7001

> <PUBCHEM_FEATURE_SELFOVERLAP>
30.447

> <PUBCHEM_SHAPE_FINGERPRINT>
10319926 262 18341326687822860058
11132069 177 18336840701122913837
11545043 162 18202292368653574958
11578080 2 17489299738416985953
11595378 159 18338509850395536706
12403259 415 17775292659887797268
12596602 18 18187924058049464224
12633257 1 18041002782617973980
12670546 177 10231746808568722736
12670546 56 17894910750366417492
12839892 36 18408600374855094258
13004483 165 18194412306298553155
13103583 49 17968366846091103040
13140716 1 18194692466255921639
13224815 77 18341339920062795492
13533116 47 17022896882780621650
13544653 18 16153704319635796490
13583140 156 17560800987897540342
13675066 3 17988653977699716598
14081887 123 18340772533276710688
14178342 30 18336555923416429647
14787075 74 17346318266439805714
15099037 37 18410862083263274463
16945 1 18193307176863811455
17349148 13 18261110815499616095
18186145 218 17489319555359179204
20645477 70 14490190544433889978
21033648 29 17847057779432346168
21401589 2 16413764190256622770
21864079 5 14907907028996690048
22079108 93 16558749065579776246
23557571 272 18199766789811571077
23559900 14 18196943162880021694
3117164 225 18120086183396270194
350125 39 18270134520561913621
392239 28 17489027179212581162
404807 14 16015177776980789035
5104073 3 18342747273777792178
6913067 236 17988353875349953951
90316 7 17968093093086321780
9981440 41 18058155147047246667

> <PUBCHEM_SHAPE_MULTIPOLES>
461.59
10.32
2.69
1.96
9.61
0.51
1.5
-0.46
4.99
-3.97
0.03
2.37
-0.29
-0.18

> <PUBCHEM_SHAPE_SELFOVERLAP>
958.391

> <PUBCHEM_SHAPE_VOLUME>
262.7

> <PUBCHEM_COORDINATE_TYPE>
2
5
10

$$$$
