56069
  -OEChem-08312613493D

 43 44  0     1  0  0  0  0  0999 V2000
    3.4807   -0.7008   -0.7750 S   0  0  0  0  0  0  0  0  0  0  0  0
    2.0404    4.9215    0.1379 F   0  0  0  0  0  0  0  0  0  0  0  0
   -3.3665   -1.4816   -2.1529 F   0  0  0  0  0  0  0  0  0  0  0  0
   -5.1429   -1.1149   -0.9637 F   0  0  0  0  0  0  0  0  0  0  0  0
   -4.2186    0.5172   -2.0641 F   0  0  0  0  0  0  0  0  0  0  0  0
    2.6611   -3.5788   -0.1439 O   0  0  0  0  0  0  0  0  0  0  0  0
    2.5080   -1.2434   -1.7055 O   0  0  0  0  0  0  0  0  0  0  0  0
    4.8990   -0.7572   -1.0792 O   0  0  0  0  0  0  0  0  0  0  0  0
    0.3140   -2.5569   -0.7163 O   0  0  0  0  0  0  0  0  0  0  0  0
    0.2356   -1.2037    1.1927 N   0  0  0  0  0  0  0  0  0  0  0  0
   -5.7998    1.8330    0.6812 N   0  0  0  0  0  0  0  0  0  0  0  0
    2.2037   -2.5916    0.7804 C   0  0  2  0  0  0  0  0  0  0  0  0
    3.2398   -1.4640    0.8026 C   0  0  0  0  0  0  0  0  0  0  0  0
    2.1202   -3.2610    2.1563 C   0  0  0  0  0  0  0  0  0  0  0  0
    0.8093   -2.1237    0.3221 C   0  0  0  0  0  0  0  0  0  0  0  0
    3.0474    0.9901   -0.4992 C   0  0  0  0  0  0  0  0  0  0  0  0
   -1.0271   -0.5745    1.0769 C   0  0  0  0  0  0  0  0  0  0  0  0
    4.0271    1.8828   -0.0998 C   0  0  0  0  0  0  0  0  0  0  0  0
    1.7361    1.3916   -0.6890 C   0  0  0  0  0  0  0  0  0  0  0  0
   -1.8338   -0.8686   -0.0097 C   0  0  0  0  0  0  0  0  0  0  0  0
    3.6852    3.2177    0.1164 C   0  0  0  0  0  0  0  0  0  0  0  0
    1.3943    2.7266   -0.4730 C   0  0  0  0  0  0  0  0  0  0  0  0
   -1.4285    0.3217    2.0533 C   0  0  0  0  0  0  0  0  0  0  0  0
   -3.0781   -0.2483   -0.1233 C   0  0  0  0  0  0  0  0  0  0  0  0
    2.3688    3.6397   -0.0704 C   0  0  0  0  0  0  0  0  0  0  0  0
   -3.4976    0.6569    0.8515 C   0  0  0  0  0  0  0  0  0  0  0  0
   -2.6729    0.9417    1.9398 C   0  0  0  0  0  0  0  0  0  0  0  0
   -3.9354   -0.5782   -1.3032 C   0  0  0  0  0  0  0  0  0  0  0  0
   -4.7695    1.3067    0.7574 C   0  0  0  0  0  0  0  0  0  0  0  0
    2.9735   -0.6859    1.5246 H   0  0  0  0  0  0  0  0  0  0  0  0
    4.2198   -1.8584    1.0978 H   0  0  0  0  0  0  0  0  0  0  0  0
    3.0616   -3.7666    2.4004 H   0  0  0  0  0  0  0  0  0  0  0  0
    1.3397   -4.0311    2.1672 H   0  0  0  0  0  0  0  0  0  0  0  0
    1.8983   -2.5479    2.9563 H   0  0  0  0  0  0  0  0  0  0  0  0
    0.7722   -0.9297    2.0117 H   0  0  0  0  0  0  0  0  0  0  0  0
    2.0631   -4.3438   -0.0884 H   0  0  0  0  0  0  0  0  0  0  0  0
    5.0553    1.5719    0.0574 H   0  0  0  0  0  0  0  0  0  0  0  0
    0.9645    0.7005   -1.0105 H   0  0  0  0  0  0  0  0  0  0  0  0
   -1.5592   -1.5587   -0.7914 H   0  0  0  0  0  0  0  0  0  0  0  0
    4.4432    3.9286    0.4317 H   0  0  0  0  0  0  0  0  0  0  0  0
    0.3695    3.0553   -0.6192 H   0  0  0  0  0  0  0  0  0  0  0  0
   -0.7934    0.5512    2.9043 H   0  0  0  0  0  0  0  0  0  0  0  0
   -2.9845    1.6453    2.7083 H   0  0  0  0  0  0  0  0  0  0  0  0
  1  7  2  0  0  0  0
  1  8  2  0  0  0  0
  1 13  1  0  0  0  0
  1 16  1  0  0  0  0
  2 25  1  0  0  0  0
  3 28  1  0  0  0  0
  4 28  1  0  0  0  0
  5 28  1  0  0  0  0
  6 12  1  0  0  0  0
  6 36  1  0  0  0  0
  9 15  2  0  0  0  0
 10 15  1  0  0  0  0
 10 17  1  0  0  0  0
 10 35  1  0  0  0  0
 11 29  3  0  0  0  0
 12 13  1  0  0  0  0
 12 14  1  0  0  0  0
 12 15  1  0  0  0  0
 13 30  1  0  0  0  0
 13 31  1  0  0  0  0
 14 32  1  0  0  0  0
 14 33  1  0  0  0  0
 14 34  1  0  0  0  0
 16 18  2  0  0  0  0
 16 19  1  0  0  0  0
 17 20  2  0  0  0  0
 17 23  1  0  0  0  0
 18 21  1  0  0  0  0
 18 37  1  0  0  0  0
 19 22  2  0  0  0  0
 19 38  1  0  0  0  0
 20 24  1  0  0  0  0
 20 39  1  0  0  0  0
 21 25  2  0  0  0  0
 21 40  1  0  0  0  0
 22 25  1  0  0  0  0
 22 41  1  0  0  0  0
 23 27  2  0  0  0  0
 23 42  1  0  0  0  0
 24 26  2  0  0  0  0
 24 28  1  0  0  0  0
 26 27  1  0  0  0  0
 26 29  1  0  0  0  0
 27 43  1  0  0  0  0
M  END
> <PUBCHEM_COMPOUND_CID>
56069

> <PUBCHEM_CONFORMER_RMSD>
0.8

> <PUBCHEM_CONFORMER_DIVERSEORDER>
1
100
15
91
6
97
104
68
82
81
21
89
43
105
85
54
75
49
90
96
63
37
30
106
58
83
98
22
41
64
39
61
95
92
12
84
74
32
5
48
103
66
67
78
59
72
24
45
53
86
46
99
2
42
14
87
50
79
93
44
40
60
38
88
76
80
69
47
9
16
73
29
13
18
71
25
56
23
101
55
57
31
94
3
26
52
70
102
10
65
7
17
8
19
77
51
20
4
34
28
27
35
33
11
36
62

> <PUBCHEM_MMFF94_PARTIAL_CHARGES>
37
1 1.2
10 -0.55
11 -0.56
12 0.34
13 0.11
15 0.57
16 -0.01
17 0.12
18 -0.15
19 -0.15
2 -0.19
20 -0.15
21 -0.15
22 -0.15
23 -0.15
24 -0.14
25 0.19
26 0.07
27 -0.15
28 1.16
29 0.48
3 -0.34
35 0.37
36 0.4
37 0.15
38 0.15
39 0.15
4 -0.34
40 0.15
41 0.15
42 0.15
43 0.15
5 -0.34
6 -0.68
7 -0.65
8 -0.65
9 -0.57

> <PUBCHEM_EFFECTIVE_ROTOR_COUNT>
7

> <PUBCHEM_PHARMACOPHORE_FEATURES>
9
1 10 donor
1 11 acceptor
1 6 acceptor
1 6 donor
1 7 acceptor
1 8 acceptor
1 9 acceptor
6 16 18 19 21 22 25 rings
6 17 20 23 24 26 27 rings

> <PUBCHEM_HEAVY_ATOM_COUNT>
29

> <PUBCHEM_ATOM_DEF_STEREO_COUNT>
1

> <PUBCHEM_ATOM_UDEF_STEREO_COUNT>
0

> <PUBCHEM_BOND_DEF_STEREO_COUNT>
0

> <PUBCHEM_BOND_UDEF_STEREO_COUNT>
0

> <PUBCHEM_ISOTOPIC_ATOM_COUNT>
0

> <PUBCHEM_COMPONENT_COUNT>
1

> <PUBCHEM_CACTVS_TAUTO_COUNT>
2

> <PUBCHEM_CONFORMER_ID>
0000DB0500000006

> <PUBCHEM_MMFF94_ENERGY>
61.2706

> <PUBCHEM_FEATURE_SELFOVERLAP>
45.709

> <PUBCHEM_SHAPE_FINGERPRINT>
11370993 70 18050283966637392968
11725454 13 17386549384125984659
12467345 10 18060142041889252269
12788726 201 17614007283400019018
13134695 92 18116148870706473810
13583140 156 18262257542304166467
13726171 33 16987732353762691401
14251764 38 18195250137783966236
17818456 19 17701548307433528969
17980427 23 18199730497507082154
18681886 176 18131068225582908954
19930381 70 18264208178816253577
20511986 3 17989198270078593353
21033648 144 18260546761750064639
21033648 29 16877939421700818751
21344244 78 17899402096331157642
21860390 5 18341339928937580022
22122407 14 18120672244896428489
23559900 14 16988004877610903463
238 59 18339364187856772296
4409770 3 15246261601817889735
474 4 18410858801734148088
574716 61 18343018891725229149
6609424 69 16610886545428054193
7471813 234 17972871467641732090

> <PUBCHEM_SHAPE_MULTIPOLES>
538.12
10.1
4.55
1.75
10.27
2.49
0.01
3.25
2.21
-6.34
-0.88
1.36
-0.82
-1.35

> <PUBCHEM_SHAPE_SELFOVERLAP>
1144.83

> <PUBCHEM_SHAPE_VOLUME>
302.1

> <PUBCHEM_COORDINATE_TYPE>
2
5
10

$$$$
