
     RDKit          3D

 54 57  0  0  0  0  0  0  0  0999 V2000
   29.5315    2.2243    5.2846 C   0  0  0  0  0  0  0  0  0  0  0  0
   29.3576    1.3743    4.1230 C   0  0  2  0  0  0  0  0  0  0  0  0
   30.0365   -0.0382    4.4105 C   0  0  0  0  0  0  0  0  0  0  0  0
   31.5292   -0.0732    4.3967 C   0  0  0  0  0  0  0  0  0  0  0  0
   31.9657    1.3219    4.3614 C   0  0  0  0  0  0  0  0  0  0  0  0
   32.7141    1.7115    5.2648 O   0  0  0  0  0  0  0  0  0  0  0  0
   31.4953    2.1687    3.2608 C   0  0  0  0  0  0  0  0  0  0  0  0
   30.0821    1.7569    2.8303 C   0  0  2  0  0  0  0  0  0  0  0  0
   29.3644    2.8888    2.1621 C   0  0  0  0  0  0  0  0  0  0  0  0
   27.9527    2.4554    1.8401 C   0  0  0  0  0  0  0  0  0  0  0  0
   27.2278    2.0926    3.0827 C   0  0  2  0  0  0  0  0  0  0  0  0
   27.9455    0.9288    3.8033 C   0  0  2  0  0  0  0  0  0  0  0  0
   27.2589    0.7019    5.1626 C   0  0  0  0  0  0  0  0  0  0  0  0
   25.8200    0.1926    4.9147 C   0  0  0  0  0  0  0  0  0  0  0  0
   25.1474    1.2582    4.1016 C   0  0  2  0  0  0  0  0  0  0  0  0
   24.9052    2.4674    5.0434 C   0  0  0  0  0  0  0  0  0  0  0  0
   23.7620    0.9239    3.5836 C   0  0  1  0  0  0  0  0  0  0  0  0
   22.8236    0.8985    4.5942 O   0  0  0  0  0  0  0  0  0  0  0  0
   23.5269    2.1229    2.6273 C   0  0  0  0  0  0  0  0  0  0  0  0
   24.9020    2.7986    2.5022 C   0  0  0  0  0  0  0  0  0  0  0  0
   25.8324    1.6201    2.8946 C   0  0  1  0  0  0  0  0  0  0  0  0
   25.7508    0.5540    1.8479 C   0  0  0  0  0  0  0  0  0  0  0  0
   30.3890    2.9537    5.2153 H   0  0  0  0  0  0  0  0  0  0  0  0
   29.7250    1.6730    6.2610 H   0  0  0  0  0  0  0  0  0  0  0  0
   28.6647    2.9435    5.4977 H   0  0  0  0  0  0  0  0  0  0  0  0
   29.6173   -0.4002    5.3671 H   0  0  0  0  0  0  0  0  0  0  0  0
   29.6629   -0.6887    3.5667 H   0  0  0  0  0  0  0  0  0  0  0  0
   31.9469   -0.6697    5.2387 H   0  0  0  0  0  0  0  0  0  0  0  0
   31.8979   -0.5255    3.4168 H   0  0  0  0  0  0  0  0  0  0  0  0
   32.1492    1.9601    2.3587 H   0  0  0  0  0  0  0  0  0  0  0  0
   31.5792    3.2600    3.4218 H   0  0  0  0  0  0  0  0  0  0  0  0
   30.1405    0.8867    2.1966 H   0  0  0  0  0  0  0  0  0  0  0  0
   29.2574    3.7602    2.8868 H   0  0  0  0  0  0  0  0  0  0  0  0
   29.9082    3.2371    1.2594 H   0  0  0  0  0  0  0  0  0  0  0  0
   28.1168    1.5777    1.1342 H   0  0  0  0  0  0  0  0  0  0  0  0
   27.4789    3.2846    1.2829 H   0  0  0  0  0  0  0  0  0  0  0  0
   27.3082    2.9441    3.7886 H   0  0  0  0  0  0  0  0  0  0  0  0
   27.9262    0.0735    3.2012 H   0  0  0  0  0  0  0  0  0  0  0  0
   27.7593   -0.1056    5.6630 H   0  0  0  0  0  0  0  0  0  0  0  0
   27.2695    1.6232    5.7218 H   0  0  0  0  0  0  0  0  0  0  0  0
   25.3416    0.1716    5.9086 H   0  0  0  0  0  0  0  0  0  0  0  0
   25.8288   -0.8160    4.4930 H   0  0  0  0  0  0  0  0  0  0  0  0
   23.8434    2.7621    5.0504 H   0  0  0  0  0  0  0  0  0  0  0  0
   25.5333    3.3098    4.8206 H   0  0  0  0  0  0  0  0  0  0  0  0
   25.1551    2.1743    6.1065 H   0  0  0  0  0  0  0  0  0  0  0  0
   23.7607   -0.0405    3.1002 H   0  0  0  0  0  0  0  0  0  0  0  0
   21.9519    1.2831    4.3733 H   0  0  0  0  0  0  0  0  0  0  0  0
   22.8345    2.8082    3.1600 H   0  0  0  0  0  0  0  0  0  0  0  0
   23.1469    1.7381    1.6792 H   0  0  0  0  0  0  0  0  0  0  0  0
   25.0201    2.9506    1.3910 H   0  0  0  0  0  0  0  0  0  0  0  0
   25.0461    3.6995    3.0198 H   0  0  0  0  0  0  0  0  0  0  0  0
   26.4707    0.6286    1.0171 H   0  0  0  0  0  0  0  0  0  0  0  0
   25.8601   -0.4673    2.2996 H   0  0  0  0  0  0  0  0  0  0  0  0
   24.7220    0.5522    1.4339 H   0  0  0  0  0  0  0  0  0  0  0  0
  2  1  1  1
  2  3  1  0
  3  4  1  0
  4  5  1  0
  5  6  2  0
  5  7  1  0
  7  8  1  0
  8  9  1  0
  9 10  1  0
 10 11  1  0
 11 12  1  0
 12 13  1  0
 13 14  1  0
 14 15  1  0
 15 16  1  1
 15 17  1  0
 17 18  1  0
 17 19  1  0
 19 20  1  0
 20 21  1  0
 21 22  1  6
  8  2  1  0
 21 11  1  0
 12  2  1  0
 21 15  1  0
  1 23  1  0
  1 24  1  0
  1 25  1  0
  3 26  1  0
  3 27  1  0
  4 28  1  0
  4 29  1  0
  7 30  1  0
  7 31  1  0
  8 32  1  6
  9 33  1  0
  9 34  1  0
 10 35  1  0
 10 36  1  0
 11 37  1  1
 12 38  1  6
 13 39  1  0
 13 40  1  0
 14 41  1  0
 14 42  1  0
 16 43  1  0
 16 44  1  0
 16 45  1  0
 17 46  1  6
 18 47  1  0
 19 48  1  0
 19 49  1  0
 20 50  1  0
 20 51  1  0
 22 52  1  0
 22 53  1  0
 22 54  1  0
M  END
$$$$
