
     RDKit          3D

 54 57  0  0  0  0  0  0  0  0999 V2000
   29.4321    1.9181    5.3739 C   0  0  0  0  0  0  0  0  0  0  0  0
   28.9796    1.4007    4.0821 C   0  0  2  0  0  0  0  0  0  0  0  0
   29.6856   -0.0506    4.0734 C   0  0  0  0  0  0  0  0  0  0  0  0
   31.0934   -0.1125    4.0461 C   0  0  0  0  0  0  0  0  0  0  0  0
   31.8680    1.0822    3.7064 C   0  0  0  0  0  0  0  0  0  0  0  0
   33.0214    1.0887    3.7336 O   0  0  0  0  0  0  0  0  0  0  0  0
   31.1219    2.2737    3.2539 C   0  0  0  0  0  0  0  0  0  0  0  0
   29.7364    1.9976    2.8924 C   0  0  2  0  0  0  0  0  0  0  0  0
   29.0044    3.1547    2.3329 C   0  0  0  0  0  0  0  0  0  0  0  0
   27.5806    2.6589    1.9125 C   0  0  0  0  0  0  0  0  0  0  0  0
   26.9014    2.1653    3.1320 C   0  0  2  0  0  0  0  0  0  0  0  0
   27.6179    0.9701    3.7844 C   0  0  2  0  0  0  0  0  0  0  0  0
   26.8639    1.0504    5.2571 C   0  0  0  0  0  0  0  0  0  0  0  0
   25.4321    0.5154    5.0198 C   0  0  0  0  0  0  0  0  0  0  0  0
   24.8298    1.4163    4.0737 C   0  0  2  0  0  0  0  0  0  0  0  0
   24.3231    2.7451    4.7130 C   0  0  0  0  0  0  0  0  0  0  0  0
   23.4608    0.8753    3.5235 C   0  0  1  0  0  0  0  0  0  0  0  0
   22.4734    1.1386    4.4313 O   0  0  0  0  0  0  0  0  0  0  0  0
   23.2203    1.8534    2.3428 C   0  0  0  0  0  0  0  0  0  0  0  0
   24.5555    2.5880    2.1877 C   0  0  0  0  0  0  0  0  0  0  0  0
   25.5113    1.6638    2.8540 C   0  0  1  0  0  0  0  0  0  0  0  0
   25.6291    0.3850    2.0013 C   0  0  0  0  0  0  0  0  0  0  0  0
   28.7443    1.8969    6.2247 H   0  0  0  0  0  0  0  0  0  0  0  0
   29.9254    2.9524    5.3733 H   0  0  0  0  0  0  0  0  0  0  0  0
   30.3060    1.3103    5.8068 H   0  0  0  0  0  0  0  0  0  0  0  0
   29.3189   -0.3925    3.0601 H   0  0  0  0  0  0  0  0  0  0  0  0
   29.1369   -0.6575    4.7485 H   0  0  0  0  0  0  0  0  0  0  0  0
   31.4658   -0.8642    3.1665 H   0  0  0  0  0  0  0  0  0  0  0  0
   31.5603   -0.6300    4.9088 H   0  0  0  0  0  0  0  0  0  0  0  0
   31.2555    3.1837    3.8789 H   0  0  0  0  0  0  0  0  0  0  0  0
   31.5878    2.5442    2.2096 H   0  0  0  0  0  0  0  0  0  0  0  0
   29.6628    1.2174    2.1076 H   0  0  0  0  0  0  0  0  0  0  0  0
   29.4913    3.7273    1.6496 H   0  0  0  0  0  0  0  0  0  0  0  0
   28.7077    3.8085    3.2784 H   0  0  0  0  0  0  0  0  0  0  0  0
   26.9852    3.4199    1.4030 H   0  0  0  0  0  0  0  0  0  0  0  0
   27.8428    1.8119    1.1709 H   0  0  0  0  0  0  0  0  0  0  0  0
   26.9150    2.9838    3.8687 H   0  0  0  0  0  0  0  0  0  0  0  0
   27.3646    0.0820    3.4215 H   0  0  0  0  0  0  0  0  0  0  0  0
   27.3666    0.3434    5.8912 H   0  0  0  0  0  0  0  0  0  0  0  0
   26.7887    2.0796    5.5313 H   0  0  0  0  0  0  0  0  0  0  0  0
   24.9190    0.6362    6.0142 H   0  0  0  0  0  0  0  0  0  0  0  0
   25.4598   -0.5141    4.7597 H   0  0  0  0  0  0  0  0  0  0  0  0
   24.2322    2.6163    5.7687 H   0  0  0  0  0  0  0  0  0  0  0  0
   25.0142    3.5657    4.4766 H   0  0  0  0  0  0  0  0  0  0  0  0
   23.3605    3.0600    4.3080 H   0  0  0  0  0  0  0  0  0  0  0  0
   23.5845   -0.1678    3.1807 H   0  0  0  0  0  0  0  0  0  0  0  0
   21.6449    1.4864    3.9711 H   0  0  0  0  0  0  0  0  0  0  0  0
   22.4255    2.5465    2.5336 H   0  0  0  0  0  0  0  0  0  0  0  0
   23.0366    1.1979    1.4658 H   0  0  0  0  0  0  0  0  0  0  0  0
   24.5131    3.6329    2.4799 H   0  0  0  0  0  0  0  0  0  0  0  0
   24.7945    2.4925    1.0542 H   0  0  0  0  0  0  0  0  0  0  0  0
   26.6112    0.3229    1.5644 H   0  0  0  0  0  0  0  0  0  0  0  0
   25.5494   -0.4766    2.6958 H   0  0  0  0  0  0  0  0  0  0  0  0
   24.8352    0.3021    1.2702 H   0  0  0  0  0  0  0  0  0  0  0  0
  2  1  1  1
  2  3  1  0
  3  4  1  0
  4  5  1  0
  5  6  2  0
  5  7  1  0
  7  8  1  0
  8  9  1  0
  9 10  1  0
 10 11  1  0
 11 12  1  0
 12 13  1  0
 13 14  1  0
 14 15  1  0
 15 16  1  1
 15 17  1  0
 17 18  1  0
 17 19  1  0
 19 20  1  0
 20 21  1  0
 21 22  1  6
  8  2  1  0
 21 11  1  0
 12  2  1  0
 21 15  1  0
  1 23  1  0
  1 24  1  0
  1 25  1  0
  3 26  1  0
  3 27  1  0
  4 28  1  0
  4 29  1  0
  7 30  1  0
  7 31  1  0
  8 32  1  6
  9 33  1  0
  9 34  1  0
 10 35  1  0
 10 36  1  0
 11 37  1  1
 12 38  1  6
 13 39  1  0
 13 40  1  0
 14 41  1  0
 14 42  1  0
 16 43  1  0
 16 44  1  0
 16 45  1  0
 17 46  1  6
 18 47  1  0
 19 48  1  0
 19 49  1  0
 20 50  1  0
 20 51  1  0
 22 52  1  0
 22 53  1  0
 22 54  1  0
M  END
$$$$
