
     RDKit          3D

 54 57  0  0  0  0  0  0  0  0999 V2000
   29.0456    2.4646    5.3636 C   0  0  0  0  0  0  0  0  0  0  0  0
   28.9472    1.2938    4.4361 C   0  0  2  0  0  0  0  0  0  0  0  0
   29.8525    0.1589    4.9781 C   0  0  0  0  0  0  0  0  0  0  0  0
   31.3586    0.4365    4.9174 C   0  0  0  0  0  0  0  0  0  0  0  0
   31.5421    1.8264    4.4696 C   0  0  0  0  0  0  0  0  0  0  0  0
   32.2611    2.5872    5.1567 O   0  0  0  0  0  0  0  0  0  0  0  0
   30.9082    2.3549    3.2129 C   0  0  0  0  0  0  0  0  0  0  0  0
   29.6241    1.5805    3.0846 C   0  0  2  0  0  0  0  0  0  0  0  0
   28.7373    1.7049    1.8662 C   0  0  0  0  0  0  0  0  0  0  0  0
   27.6837    2.7297    2.2875 C   0  0  0  0  0  0  0  0  0  0  0  0
   26.9164    2.1292    3.4065 C   0  0  2  0  0  0  0  0  0  0  0  0
   27.5824    0.9406    4.0792 C   0  0  2  0  0  0  0  0  0  0  0  0
   26.7900    0.4934    5.2943 C   0  0  0  0  0  0  0  0  0  0  0  0
   25.3555    0.0920    4.8997 C   0  0  0  0  0  0  0  0  0  0  0  0
   24.7184    1.2767    4.2554 C   0  0  2  0  0  0  0  0  0  0  0  0
   24.5793    2.3099    5.3691 C   0  0  0  0  0  0  0  0  0  0  0  0
   23.3729    1.1877    3.6566 C   0  0  1  0  0  0  0  0  0  0  0  0
   22.4573    1.2468    4.7239 O   0  0  0  0  0  0  0  0  0  0  0  0
   23.2843    2.5671    2.9220 C   0  0  0  0  0  0  0  0  0  0  0  0
   24.6982    3.0970    2.9918 C   0  0  0  0  0  0  0  0  0  0  0  0
   25.5128    1.7351    3.0847 C   0  0  1  0  0  0  0  0  0  0  0  0
   25.3221    1.0897    1.8340 C   0  0  0  0  0  0  0  0  0  0  0  0
   29.8581    2.3315    6.1045 H   0  0  0  0  0  0  0  0  0  0  0  0
   29.2199    3.4193    4.8285 H   0  0  0  0  0  0  0  0  0  0  0  0
   28.0905    2.5501    5.9620 H   0  0  0  0  0  0  0  0  0  0  0  0
   29.6077    0.1462    6.0838 H   0  0  0  0  0  0  0  0  0  0  0  0
   29.6691   -0.8016    4.5472 H   0  0  0  0  0  0  0  0  0  0  0  0
   31.7843   -0.2523    4.1821 H   0  0  0  0  0  0  0  0  0  0  0  0
   31.8092    0.2392    5.8712 H   0  0  0  0  0  0  0  0  0  0  0  0
   31.6004    2.0494    2.4103 H   0  0  0  0  0  0  0  0  0  0  0  0
   30.7676    3.4347    3.2600 H   0  0  0  0  0  0  0  0  0  0  0  0
   30.0859    0.5035    2.8707 H   0  0  0  0  0  0  0  0  0  0  0  0
   28.3422    0.7863    1.5413 H   0  0  0  0  0  0  0  0  0  0  0  0
   29.3363    2.1829    1.0677 H   0  0  0  0  0  0  0  0  0  0  0  0
   27.0188    2.8672    1.4041 H   0  0  0  0  0  0  0  0  0  0  0  0
   28.2087    3.6700    2.5473 H   0  0  0  0  0  0  0  0  0  0  0  0
   26.8414    2.9262    4.2052 H   0  0  0  0  0  0  0  0  0  0  0  0
   27.5493    0.0780    3.3831 H   0  0  0  0  0  0  0  0  0  0  0  0
   27.2666   -0.4691    5.5775 H   0  0  0  0  0  0  0  0  0  0  0  0
   26.8032    1.1392    6.1440 H   0  0  0  0  0  0  0  0  0  0  0  0
   24.7864   -0.2848    5.7407 H   0  0  0  0  0  0  0  0  0  0  0  0
   25.5287   -0.7557    4.1527 H   0  0  0  0  0  0  0  0  0  0  0  0
   24.2349    1.6670    6.2406 H   0  0  0  0  0  0  0  0  0  0  0  0
   23.7458    3.0100    5.2120 H   0  0  0  0  0  0  0  0  0  0  0  0
   25.4939    2.7354    5.6841 H   0  0  0  0  0  0  0  0  0  0  0  0
   23.0860    0.3712    3.0677 H   0  0  0  0  0  0  0  0  0  0  0  0
   22.4046    0.2942    5.1053 H   0  0  0  0  0  0  0  0  0  0  0  0
   22.6627    3.2585    3.4996 H   0  0  0  0  0  0  0  0  0  0  0  0
   22.9918    2.4123    1.8717 H   0  0  0  0  0  0  0  0  0  0  0  0
   24.9728    3.5751    2.0248 H   0  0  0  0  0  0  0  0  0  0  0  0
   24.9171    3.7450    3.8179 H   0  0  0  0  0  0  0  0  0  0  0  0
   26.1791    0.4999    1.4145 H   0  0  0  0  0  0  0  0  0  0  0  0
   24.4841    0.2945    1.7759 H   0  0  0  0  0  0  0  0  0  0  0  0
   25.0690    1.8004    1.0382 H   0  0  0  0  0  0  0  0  0  0  0  0
  2  1  1  1
  2  3  1  0
  3  4  1  0
  4  5  1  0
  5  6  2  0
  5  7  1  0
  7  8  1  0
  8  9  1  0
  9 10  1  0
 10 11  1  0
 11 12  1  0
 12 13  1  0
 13 14  1  0
 14 15  1  0
 15 16  1  1
 15 17  1  0
 17 18  1  0
 17 19  1  0
 19 20  1  0
 20 21  1  0
 21 22  1  6
  8  2  1  0
 21 11  1  0
 12  2  1  0
 21 15  1  0
  1 23  1  0
  1 24  1  0
  1 25  1  0
  3 26  1  0
  3 27  1  0
  4 28  1  0
  4 29  1  0
  7 30  1  0
  7 31  1  0
  8 32  1  6
  9 33  1  0
  9 34  1  0
 10 35  1  0
 10 36  1  0
 11 37  1  1
 12 38  1  6
 13 39  1  0
 13 40  1  0
 14 41  1  0
 14 42  1  0
 16 43  1  0
 16 44  1  0
 16 45  1  0
 17 46  1  6
 18 47  1  0
 19 48  1  0
 19 49  1  0
 20 50  1  0
 20 51  1  0
 22 52  1  0
 22 53  1  0
 22 54  1  0
M  END
$$$$
