
     RDKit          3D

 54 57  0  0  0  0  0  0  0  0999 V2000
   29.3984    2.1740    5.2863 C   0  0  0  0  0  0  0  0  0  0  0  0
   29.2879    1.2946    4.1189 C   0  0  2  0  0  0  0  0  0  0  0  0
   30.0030   -0.0730    4.3772 C   0  0  0  0  0  0  0  0  0  0  0  0
   31.5109   -0.0682    4.3636 C   0  0  0  0  0  0  0  0  0  0  0  0
   31.9175    1.3317    4.2869 C   0  0  0  0  0  0  0  0  0  0  0  0
   32.6899    1.7934    5.1452 O   0  0  0  0  0  0  0  0  0  0  0  0
   31.4050    2.1479    3.1956 C   0  0  0  0  0  0  0  0  0  0  0  0
   29.9701    1.6643    2.8323 C   0  0  2  0  0  0  0  0  0  0  0  0
   29.2900    2.8368    2.1451 C   0  0  0  0  0  0  0  0  0  0  0  0
   27.8800    2.4332    1.8304 C   0  0  0  0  0  0  0  0  0  0  0  0
   27.1503    2.0641    3.0814 C   0  0  2  0  0  0  0  0  0  0  0  0
   27.8660    0.8772    3.7924 C   0  0  2  0  0  0  0  0  0  0  0  0
   27.1654    0.7108    5.1607 C   0  0  0  0  0  0  0  0  0  0  0  0
   25.7312    0.2181    4.9413 C   0  0  0  0  0  0  0  0  0  0  0  0
   25.0639    1.2565    4.1035 C   0  0  2  0  0  0  0  0  0  0  0  0
   24.8764    2.5102    5.0650 C   0  0  0  0  0  0  0  0  0  0  0  0
   23.6759    0.9575    3.6305 C   0  0  1  0  0  0  0  0  0  0  0  0
   22.7803    1.0898    4.6522 O   0  0  0  0  0  0  0  0  0  0  0  0
   23.4634    2.1574    2.6277 C   0  0  0  0  0  0  0  0  0  0  0  0
   24.8299    2.7729    2.4634 C   0  0  0  0  0  0  0  0  0  0  0  0
   25.7585    1.5923    2.8746 C   0  0  1  0  0  0  0  0  0  0  0  0
   25.5894    0.5192    1.8720 C   0  0  0  0  0  0  0  0  0  0  0  0
   30.3132    2.7767    5.4198 H   0  0  0  0  0  0  0  0  0  0  0  0
   29.3037    1.5794    6.2472 H   0  0  0  0  0  0  0  0  0  0  0  0
   28.5619    2.9602    5.2998 H   0  0  0  0  0  0  0  0  0  0  0  0
   29.6247   -0.4938    5.3516 H   0  0  0  0  0  0  0  0  0  0  0  0
   29.6647   -0.7257    3.5609 H   0  0  0  0  0  0  0  0  0  0  0  0
   31.9289   -0.6803    3.5504 H   0  0  0  0  0  0  0  0  0  0  0  0
   31.9053   -0.5270    5.2880 H   0  0  0  0  0  0  0  0  0  0  0  0
   31.3757    3.2565    3.4220 H   0  0  0  0  0  0  0  0  0  0  0  0
   32.0826    2.0748    2.3085 H   0  0  0  0  0  0  0  0  0  0  0  0
   30.1144    0.8048    2.1939 H   0  0  0  0  0  0  0  0  0  0  0  0
   29.8178    3.0494    1.2224 H   0  0  0  0  0  0  0  0  0  0  0  0
   29.3242    3.7408    2.7886 H   0  0  0  0  0  0  0  0  0  0  0  0
   27.8684    1.7076    1.0317 H   0  0  0  0  0  0  0  0  0  0  0  0
   27.4084    3.3745    1.4404 H   0  0  0  0  0  0  0  0  0  0  0  0
   27.1713    2.9295    3.7812 H   0  0  0  0  0  0  0  0  0  0  0  0
   27.8718    0.0356    3.1574 H   0  0  0  0  0  0  0  0  0  0  0  0
   27.6260   -0.0499    5.7400 H   0  0  0  0  0  0  0  0  0  0  0  0
   27.1325    1.6599    5.6594 H   0  0  0  0  0  0  0  0  0  0  0  0
   25.6406   -0.7966    4.5838 H   0  0  0  0  0  0  0  0  0  0  0  0
   25.3005    0.2553    5.9555 H   0  0  0  0  0  0  0  0  0  0  0  0
   25.4525    2.3809    5.9932 H   0  0  0  0  0  0  0  0  0  0  0  0
   25.1299    3.4414    4.6644 H   0  0  0  0  0  0  0  0  0  0  0  0
   23.8215    2.4721    5.3969 H   0  0  0  0  0  0  0  0  0  0  0  0
   23.6095   -0.0100    3.0958 H   0  0  0  0  0  0  0  0  0  0  0  0
   21.9771    0.5061    4.5716 H   0  0  0  0  0  0  0  0  0  0  0  0
   22.9954    1.7137    1.7543 H   0  0  0  0  0  0  0  0  0  0  0  0
   22.8167    2.9078    3.0943 H   0  0  0  0  0  0  0  0  0  0  0  0
   25.0374    3.7083    2.8460 H   0  0  0  0  0  0  0  0  0  0  0  0
   24.9870    2.7887    1.3381 H   0  0  0  0  0  0  0  0  0  0  0  0
   26.3256    0.5808    1.0369 H   0  0  0  0  0  0  0  0  0  0  0  0
   24.6068    0.6239    1.3950 H   0  0  0  0  0  0  0  0  0  0  0  0
   25.7165   -0.4940    2.2807 H   0  0  0  0  0  0  0  0  0  0  0  0
  2  1  1  1
  2  3  1  0
  3  4  1  0
  4  5  1  0
  5  6  2  0
  5  7  1  0
  7  8  1  0
  8  9  1  0
  9 10  1  0
 10 11  1  0
 11 12  1  0
 12 13  1  0
 13 14  1  0
 14 15  1  0
 15 16  1  1
 15 17  1  0
 17 18  1  0
 17 19  1  0
 19 20  1  0
 20 21  1  0
 21 22  1  6
  8  2  1  0
 21 11  1  0
 12  2  1  0
 21 15  1  0
  1 23  1  0
  1 24  1  0
  1 25  1  0
  3 26  1  0
  3 27  1  0
  4 28  1  0
  4 29  1  0
  7 30  1  0
  7 31  1  0
  8 32  1  6
  9 33  1  0
  9 34  1  0
 10 35  1  0
 10 36  1  0
 11 37  1  1
 12 38  1  6
 13 39  1  0
 13 40  1  0
 14 41  1  0
 14 42  1  0
 16 43  1  0
 16 44  1  0
 16 45  1  0
 17 46  1  6
 18 47  1  0
 19 48  1  0
 19 49  1  0
 20 50  1  0
 20 51  1  0
 22 52  1  0
 22 53  1  0
 22 54  1  0
M  END
$$$$
