
     RDKit          3D

 54 57  0  0  0  0  0  0  0  0999 V2000
   29.4088    2.2751    5.2560 C   0  0  0  0  0  0  0  0  0  0  0  0
   29.2381    1.3608    4.1288 C   0  0  2  0  0  0  0  0  0  0  0  0
   29.9529   -0.0146    4.4476 C   0  0  0  0  0  0  0  0  0  0  0  0
   31.4633   -0.0081    4.4340 C   0  0  0  0  0  0  0  0  0  0  0  0
   31.8818    1.3878    4.3780 C   0  0  0  0  0  0  0  0  0  0  0  0
   32.6375    1.8158    5.2460 O   0  0  0  0  0  0  0  0  0  0  0  0
   31.3467    2.1905    3.2571 C   0  0  0  0  0  0  0  0  0  0  0  0
   29.9425    1.7276    2.8372 C   0  0  2  0  0  0  0  0  0  0  0  0
   29.2535    2.8901    2.1702 C   0  0  0  0  0  0  0  0  0  0  0  0
   27.8148    2.4810    1.8556 C   0  0  0  0  0  0  0  0  0  0  0  0
   27.1109    2.0856    3.0977 C   0  0  2  0  0  0  0  0  0  0  0  0
   27.8341    0.9246    3.8017 C   0  0  2  0  0  0  0  0  0  0  0  0
   27.1467    0.6987    5.1708 C   0  0  0  0  0  0  0  0  0  0  0  0
   25.7080    0.1870    4.9373 C   0  0  0  0  0  0  0  0  0  0  0  0
   25.0473    1.2662    4.1366 C   0  0  2  0  0  0  0  0  0  0  0  0
   24.7997    2.4087    5.1089 C   0  0  0  0  0  0  0  0  0  0  0  0
   23.6543    0.9383    3.5991 C   0  0  1  0  0  0  0  0  0  0  0  0
   22.7525    1.0145    4.6086 O   0  0  0  0  0  0  0  0  0  0  0  0
   23.4265    2.1719    2.6737 C   0  0  0  0  0  0  0  0  0  0  0  0
   24.7848    2.8034    2.5270 C   0  0  0  0  0  0  0  0  0  0  0  0
   25.7225    1.6243    2.9142 C   0  0  1  0  0  0  0  0  0  0  0  0
   25.5774    0.5628    1.8468 C   0  0  0  0  0  0  0  0  0  0  0  0
   28.5312    2.9424    5.4753 H   0  0  0  0  0  0  0  0  0  0  0  0
   30.2465    2.9976    5.1598 H   0  0  0  0  0  0  0  0  0  0  0  0
   29.5582    1.7211    6.2153 H   0  0  0  0  0  0  0  0  0  0  0  0
   29.5922   -0.3770    5.4272 H   0  0  0  0  0  0  0  0  0  0  0  0
   29.6092   -0.7361    3.6665 H   0  0  0  0  0  0  0  0  0  0  0  0
   31.8727   -0.5432    5.3048 H   0  0  0  0  0  0  0  0  0  0  0  0
   31.8856   -0.5281    3.5353 H   0  0  0  0  0  0  0  0  0  0  0  0
   31.3842    3.2709    3.4573 H   0  0  0  0  0  0  0  0  0  0  0  0
   32.0000    1.9429    2.3823 H   0  0  0  0  0  0  0  0  0  0  0  0
   30.0312    0.8606    2.2135 H   0  0  0  0  0  0  0  0  0  0  0  0
   29.7602    3.0839    1.2315 H   0  0  0  0  0  0  0  0  0  0  0  0
   29.2639    3.7650    2.8076 H   0  0  0  0  0  0  0  0  0  0  0  0
   27.3345    3.4279    1.5007 H   0  0  0  0  0  0  0  0  0  0  0  0
   27.7856    1.7538    1.0634 H   0  0  0  0  0  0  0  0  0  0  0  0
   27.0737    2.9306    3.8305 H   0  0  0  0  0  0  0  0  0  0  0  0
   27.8485    0.0142    3.2402 H   0  0  0  0  0  0  0  0  0  0  0  0
   27.1565    1.6346    5.6961 H   0  0  0  0  0  0  0  0  0  0  0  0
   27.6700   -0.1063    5.7103 H   0  0  0  0  0  0  0  0  0  0  0  0
   25.2248    0.1635    5.9287 H   0  0  0  0  0  0  0  0  0  0  0  0
   25.6877   -0.8201    4.5303 H   0  0  0  0  0  0  0  0  0  0  0  0
   24.9716    3.4049    4.7639 H   0  0  0  0  0  0  0  0  0  0  0  0
   25.3606    2.2769    6.0768 H   0  0  0  0  0  0  0  0  0  0  0  0
   23.7220    2.3412    5.4821 H   0  0  0  0  0  0  0  0  0  0  0  0
   23.6585    0.0037    3.0207 H   0  0  0  0  0  0  0  0  0  0  0  0
   22.0285    1.6830    4.4427 H   0  0  0  0  0  0  0  0  0  0  0  0
   22.6742    2.8486    3.1362 H   0  0  0  0  0  0  0  0  0  0  0  0
   23.0580    1.7549    1.7310 H   0  0  0  0  0  0  0  0  0  0  0  0
   24.9906    2.8813    1.4037 H   0  0  0  0  0  0  0  0  0  0  0  0
   24.9911    3.7409    2.9386 H   0  0  0  0  0  0  0  0  0  0  0  0
   26.4398    0.5306    1.1899 H   0  0  0  0  0  0  0  0  0  0  0  0
   25.5321   -0.4651    2.3146 H   0  0  0  0  0  0  0  0  0  0  0  0
   24.6400    0.6727    1.3019 H   0  0  0  0  0  0  0  0  0  0  0  0
  2  1  1  1
  2  3  1  0
  3  4  1  0
  4  5  1  0
  5  6  2  0
  5  7  1  0
  7  8  1  0
  8  9  1  0
  9 10  1  0
 10 11  1  0
 11 12  1  0
 12 13  1  0
 13 14  1  0
 14 15  1  0
 15 16  1  1
 15 17  1  0
 17 18  1  0
 17 19  1  0
 19 20  1  0
 20 21  1  0
 21 22  1  6
  8  2  1  0
 21 11  1  0
 12  2  1  0
 21 15  1  0
  1 23  1  0
  1 24  1  0
  1 25  1  0
  3 26  1  0
  3 27  1  0
  4 28  1  0
  4 29  1  0
  7 30  1  0
  7 31  1  0
  8 32  1  6
  9 33  1  0
  9 34  1  0
 10 35  1  0
 10 36  1  0
 11 37  1  1
 12 38  1  6
 13 39  1  0
 13 40  1  0
 14 41  1  0
 14 42  1  0
 16 43  1  0
 16 44  1  0
 16 45  1  0
 17 46  1  6
 18 47  1  0
 19 48  1  0
 19 49  1  0
 20 50  1  0
 20 51  1  0
 22 52  1  0
 22 53  1  0
 22 54  1  0
M  END
$$$$
