
     RDKit          3D

 53 55  0  0  0  0  0  0  0  0999 V2000
   33.5205    1.0202    4.0223 C   0  0  0  0  0  0  0  0  0  0  0  0
   32.0947    1.1837    4.5193 C   0  0  0  0  0  0  0  0  0  0  0  0
   31.9890    2.3848    5.4597 C   0  0  0  0  0  0  0  0  0  0  0  0
   30.5705    2.4749    5.9891 C   0  0  0  0  0  0  0  0  0  0  0  0
   29.6281    2.5957    4.8490 C   0  0  0  0  0  0  0  0  0  0  0  0
   28.1938    2.6150    5.2538 C   0  0  0  0  0  0  0  0  0  0  0  0
   27.6821    1.3981    5.5911 C   0  0  0  0  0  0  0  0  0  0  0  0
   26.2776    1.2374    5.7406 C   0  0  0  0  0  0  0  0  0  0  0  0
   25.9336   -0.0329    6.0928 O   0  0  0  0  0  0  0  0  0  0  0  0
   25.4142    2.3842    5.5165 C   0  0  0  0  0  0  0  0  0  0  0  0
   26.0248    3.5558    5.2006 C   0  0  0  0  0  0  0  0  0  0  0  0
   27.4212    3.7254    5.0518 C   0  0  0  0  0  0  0  0  0  0  0  0
   25.3036    4.7659    5.0750 O   0  0  0  0  0  0  0  0  0  0  0  0
   23.8225    4.7294    5.3460 C   0  0  0  0  0  0  0  0  0  0  0  0
   23.5817    5.0376    6.7327 C   0  0  0  0  0  0  0  0  0  0  0  0
   23.3466    5.8790    4.4945 C   0  0  0  0  0  0  0  0  0  0  0  0
   23.4232    3.3922    4.8905 C   0  0  2  0  0  0  0  0  0  0  0  0
   21.8481    3.2210    4.9455 C   0  0  0  0  0  0  0  0  0  0  0  0
   21.4487    1.8462    4.3432 C   0  0  0  0  0  0  0  0  0  0  0  0
   22.2017    0.6912    4.6481 C   0  0  0  0  0  0  0  0  0  0  0  0
   21.8557   -0.7411    4.2716 C   0  0  0  0  0  0  0  0  0  0  0  0
   23.4000    0.9331    5.2381 C   0  0  0  0  0  0  0  0  0  0  0  0
   23.9480    2.2583    5.6172 C   0  0  1  0  0  0  0  0  0  0  0  0
   33.4510    0.5421    3.0162 H   0  0  0  0  0  0  0  0  0  0  0  0
   34.0345    0.3813    4.7721 H   0  0  0  0  0  0  0  0  0  0  0  0
   33.9947    2.0109    3.9580 H   0  0  0  0  0  0  0  0  0  0  0  0
   31.8491    0.2933    5.0390 H   0  0  0  0  0  0  0  0  0  0  0  0
   31.4196    1.4231    3.6255 H   0  0  0  0  0  0  0  0  0  0  0  0
   32.1901    3.2963    4.8423 H   0  0  0  0  0  0  0  0  0  0  0  0
   32.7135    2.2387    6.2906 H   0  0  0  0  0  0  0  0  0  0  0  0
   30.3353    1.5311    6.5134 H   0  0  0  0  0  0  0  0  0  0  0  0
   30.4714    3.2961    6.7196 H   0  0  0  0  0  0  0  0  0  0  0  0
   29.8334    3.5305    4.2544 H   0  0  0  0  0  0  0  0  0  0  0  0
   29.7135    1.7128    4.1098 H   0  0  0  0  0  0  0  0  0  0  0  0
   28.3971    0.6550    5.8528 H   0  0  0  0  0  0  0  0  0  0  0  0
   26.3304   -0.7564    5.5549 H   0  0  0  0  0  0  0  0  0  0  0  0
   27.8248    4.6332    4.6927 H   0  0  0  0  0  0  0  0  0  0  0  0
   24.2924    4.5764    7.4524 H   0  0  0  0  0  0  0  0  0  0  0  0
   23.7398    6.1067    6.8888 H   0  0  0  0  0  0  0  0  0  0  0  0
   22.5332    4.7622    7.0568 H   0  0  0  0  0  0  0  0  0  0  0  0
   22.4996    5.6763    3.8956 H   0  0  0  0  0  0  0  0  0  0  0  0
   23.2707    6.7515    5.1489 H   0  0  0  0  0  0  0  0  0  0  0  0
   24.1471    6.1663    3.7419 H   0  0  0  0  0  0  0  0  0  0  0  0
   23.7124    3.1968    3.8069 H   0  0  0  0  0  0  0  0  0  0  0  0
   21.4610    3.2848    5.8993 H   0  0  0  0  0  0  0  0  0  0  0  0
   21.4492    3.9671    4.2461 H   0  0  0  0  0  0  0  0  0  0  0  0
   20.3379    1.7277    4.6014 H   0  0  0  0  0  0  0  0  0  0  0  0
   21.4259    2.0138    3.2124 H   0  0  0  0  0  0  0  0  0  0  0  0
   21.2680   -1.2117    5.0783 H   0  0  0  0  0  0  0  0  0  0  0  0
   22.8053   -1.3441    4.2448 H   0  0  0  0  0  0  0  0  0  0  0  0
   21.4104   -0.7144    3.3045 H   0  0  0  0  0  0  0  0  0  0  0  0
   23.9872   -0.0206    5.3751 H   0  0  0  0  0  0  0  0  0  0  0  0
   23.7536    2.2434    6.7473 H   0  0  0  0  0  0  0  0  0  0  0  0
  1  2  1  0
  2  3  1  0
  3  4  1  0
  4  5  1  0
  5  6  1  0
  6  7  2  0
  7  8  1  0
  8  9  1  0
  8 10  2  0
 10 11  1  0
 11 12  2  0
 11 13  1  0
 13 14  1  0
 14 15  1  0
 14 16  1  0
 14 17  1  0
 17 18  1  0
 18 19  1  0
 19 20  1  0
 20 21  1  0
 20 22  2  0
 22 23  1  0
 12  6  1  0
 23 17  1  0
 23 10  1  0
  1 24  1  0
  1 25  1  0
  1 26  1  0
  2 27  1  0
  2 28  1  0
  3 29  1  0
  3 30  1  0
  4 31  1  0
  4 32  1  0
  5 33  1  0
  5 34  1  0
  7 35  1  0
  9 36  1  0
 12 37  1  0
 15 38  1  0
 15 39  1  0
 15 40  1  0
 16 41  1  0
 16 42  1  0
 16 43  1  0
 17 44  1  6
 18 45  1  0
 18 46  1  0
 19 47  1  0
 19 48  1  0
 21 49  1  0
 21 50  1  0
 21 51  1  0
 22 52  1  0
 23 53  1  1
M  END
$$$$
