
     RDKit          3D

 53 55  0  0  0  0  0  0  0  0999 V2000
   33.4725    0.9180    4.6893 C   0  0  0  0  0  0  0  0  0  0  0  0
   32.3260    1.4102    5.5753 C   0  0  0  0  0  0  0  0  0  0  0  0
   31.3357    2.0651    4.6532 C   0  0  0  0  0  0  0  0  0  0  0  0
   30.1316    2.4211    5.5409 C   0  0  0  0  0  0  0  0  0  0  0  0
   29.0487    2.8602    4.5784 C   0  0  0  0  0  0  0  0  0  0  0  0
   27.7299    2.9227    5.1880 C   0  0  0  0  0  0  0  0  0  0  0  0
   27.2756    1.7493    5.7154 C   0  0  0  0  0  0  0  0  0  0  0  0
   25.9524    1.5988    6.0050 C   0  0  0  0  0  0  0  0  0  0  0  0
   25.5387    0.3729    6.6000 O   0  0  0  0  0  0  0  0  0  0  0  0
   25.0865    2.6324    5.7200 C   0  0  0  0  0  0  0  0  0  0  0  0
   25.5131    3.8405    5.1844 C   0  0  0  0  0  0  0  0  0  0  0  0
   26.8827    3.9941    4.9036 C   0  0  0  0  0  0  0  0  0  0  0  0
   24.6344    4.8879    4.9649 O   0  0  0  0  0  0  0  0  0  0  0  0
   23.2122    4.7716    5.2609 C   0  0  0  0  0  0  0  0  0  0  0  0
   22.7431    5.7244    6.2459 C   0  0  0  0  0  0  0  0  0  0  0  0
   22.6636    5.4028    3.8717 C   0  0  0  0  0  0  0  0  0  0  0  0
   22.8275    3.3873    5.1821 C   0  0  2  0  0  0  0  0  0  0  0  0
   21.3360    3.1282    5.4847 C   0  0  0  0  0  0  0  0  0  0  0  0
   20.9756    1.6823    5.4755 C   0  0  0  0  0  0  0  0  0  0  0  0
   22.0091    0.7813    4.9919 C   0  0  0  0  0  0  0  0  0  0  0  0
   21.7575   -0.4682    4.1830 C   0  0  0  0  0  0  0  0  0  0  0  0
   23.2849    1.1028    5.2331 C   0  0  0  0  0  0  0  0  0  0  0  0
   23.6214    2.4033    5.9922 C   0  0  1  0  0  0  0  0  0  0  0  0
   34.3483    1.5450    4.8673 H   0  0  0  0  0  0  0  0  0  0  0  0
   33.1443    0.9543    3.5958 H   0  0  0  0  0  0  0  0  0  0  0  0
   33.6348   -0.1376    4.9924 H   0  0  0  0  0  0  0  0  0  0  0  0
   32.6623    2.2145    6.2803 H   0  0  0  0  0  0  0  0  0  0  0  0
   31.8142    0.5860    6.1013 H   0  0  0  0  0  0  0  0  0  0  0  0
   31.6984    3.0466    4.2817 H   0  0  0  0  0  0  0  0  0  0  0  0
   30.9595    1.4196    3.8796 H   0  0  0  0  0  0  0  0  0  0  0  0
   30.3452    3.3046    6.1537 H   0  0  0  0  0  0  0  0  0  0  0  0
   29.7714    1.5675    6.1038 H   0  0  0  0  0  0  0  0  0  0  0  0
   28.9520    2.1959    3.6815 H   0  0  0  0  0  0  0  0  0  0  0  0
   29.2999    3.8955    4.2657 H   0  0  0  0  0  0  0  0  0  0  0  0
   27.8970    0.8657    5.8655 H   0  0  0  0  0  0  0  0  0  0  0  0
   25.8522   -0.4607    6.1571 H   0  0  0  0  0  0  0  0  0  0  0  0
   27.2403    4.9091    4.5338 H   0  0  0  0  0  0  0  0  0  0  0  0
   23.2360    6.7260    6.0401 H   0  0  0  0  0  0  0  0  0  0  0  0
   22.8882    5.5008    7.2922 H   0  0  0  0  0  0  0  0  0  0  0  0
   21.6246    6.0269    6.1021 H   0  0  0  0  0  0  0  0  0  0  0  0
   23.1789    4.6814    3.1750 H   0  0  0  0  0  0  0  0  0  0  0  0
   23.0980    6.3704    3.7303 H   0  0  0  0  0  0  0  0  0  0  0  0
   21.6054    5.2520    3.8575 H   0  0  0  0  0  0  0  0  0  0  0  0
   22.9188    3.0337    4.0837 H   0  0  0  0  0  0  0  0  0  0  0  0
   21.1278    3.5901    6.4717 H   0  0  0  0  0  0  0  0  0  0  0  0
   20.6714    3.6382    4.7391 H   0  0  0  0  0  0  0  0  0  0  0  0
   20.0246    1.5014    4.8955 H   0  0  0  0  0  0  0  0  0  0  0  0
   20.8163    1.3652    6.5665 H   0  0  0  0  0  0  0  0  0  0  0  0
   22.5525   -0.4649    3.3829 H   0  0  0  0  0  0  0  0  0  0  0  0
   22.0729   -1.3173    4.8323 H   0  0  0  0  0  0  0  0  0  0  0  0
   20.7466   -0.4855    3.7996 H   0  0  0  0  0  0  0  0  0  0  0  0
   24.0485    0.4328    4.8808 H   0  0  0  0  0  0  0  0  0  0  0  0
   23.4150    2.3199    7.0109 H   0  0  0  0  0  0  0  0  0  0  0  0
  1  2  1  0
  2  3  1  0
  3  4  1  0
  4  5  1  0
  5  6  1  0
  6  7  2  0
  7  8  1  0
  8  9  1  0
  8 10  2  0
 10 11  1  0
 11 12  2  0
 11 13  1  0
 13 14  1  0
 14 15  1  0
 14 16  1  0
 14 17  1  0
 17 18  1  0
 18 19  1  0
 19 20  1  0
 20 21  1  0
 20 22  2  0
 22 23  1  0
 12  6  1  0
 23 17  1  0
 23 10  1  0
  1 24  1  0
  1 25  1  0
  1 26  1  0
  2 27  1  0
  2 28  1  0
  3 29  1  0
  3 30  1  0
  4 31  1  0
  4 32  1  0
  5 33  1  0
  5 34  1  0
  7 35  1  0
  9 36  1  0
 12 37  1  0
 15 38  1  0
 15 39  1  0
 15 40  1  0
 16 41  1  0
 16 42  1  0
 16 43  1  0
 17 44  1  6
 18 45  1  0
 18 46  1  0
 19 47  1  0
 19 48  1  0
 21 49  1  0
 21 50  1  0
 21 51  1  0
 22 52  1  0
 23 53  1  1
M  END
$$$$
