
     RDKit          3D

 53 55  0  0  0  0  0  0  0  0999 V2000
   33.6189    2.3394    5.0821 C   0  0  0  0  0  0  0  0  0  0  0  0
   32.1897    1.7399    4.9270 C   0  0  0  0  0  0  0  0  0  0  0  0
   31.3256    2.7540    4.2441 C   0  0  0  0  0  0  0  0  0  0  0  0
   29.8846    2.3513    4.1449 C   0  0  0  0  0  0  0  0  0  0  0  0
   29.3736    2.2019    5.5802 C   0  0  0  0  0  0  0  0  0  0  0  0
   27.9246    2.0038    5.6639 C   0  0  0  0  0  0  0  0  0  0  0  0
   27.2525    0.8678    6.0323 C   0  0  0  0  0  0  0  0  0  0  0  0
   25.8614    0.8578    6.0832 C   0  0  0  0  0  0  0  0  0  0  0  0
   25.2728   -0.3643    6.4701 O   0  0  0  0  0  0  0  0  0  0  0  0
   25.1000    1.9412    5.7825 C   0  0  0  0  0  0  0  0  0  0  0  0
   25.7494    3.1020    5.4190 C   0  0  0  0  0  0  0  0  0  0  0  0
   27.1275    3.0880    5.3677 C   0  0  0  0  0  0  0  0  0  0  0  0
   25.1486    4.3191    5.1432 O   0  0  0  0  0  0  0  0  0  0  0  0
   23.7220    4.5404    5.3016 C   0  0  0  0  0  0  0  0  0  0  0  0
   23.5384    5.3737    6.4994 C   0  0  0  0  0  0  0  0  0  0  0  0
   23.3755    5.3600    4.0461 C   0  0  0  0  0  0  0  0  0  0  0  0
   23.1200    3.2326    5.1572 C   0  0  2  0  0  0  0  0  0  0  0  0
   21.5998    3.2997    5.2935 C   0  0  0  0  0  0  0  0  0  0  0  0
   20.8981    2.0031    5.1759 C   0  0  0  0  0  0  0  0  0  0  0  0
   21.8231    0.8980    4.8382 C   0  0  0  0  0  0  0  0  0  0  0  0
   21.2611   -0.2338    4.0261 C   0  0  0  0  0  0  0  0  0  0  0  0
   23.0568    0.8874    5.1890 C   0  0  0  0  0  0  0  0  0  0  0  0
   23.6193    2.0626    5.9702 C   0  0  1  0  0  0  0  0  0  0  0  0
   33.9238    2.2092    6.1772 H   0  0  0  0  0  0  0  0  0  0  0  0
   33.5671    3.3979    4.8444 H   0  0  0  0  0  0  0  0  0  0  0  0
   34.2916    1.7460    4.4467 H   0  0  0  0  0  0  0  0  0  0  0  0
   32.3029    0.7972    4.2972 H   0  0  0  0  0  0  0  0  0  0  0  0
   31.8558    1.4063    5.9149 H   0  0  0  0  0  0  0  0  0  0  0  0
   31.3239    3.7372    4.7875 H   0  0  0  0  0  0  0  0  0  0  0  0
   31.7131    2.9515    3.2414 H   0  0  0  0  0  0  0  0  0  0  0  0
   29.7941    1.3778    3.6810 H   0  0  0  0  0  0  0  0  0  0  0  0
   29.3376    3.1395    3.6174 H   0  0  0  0  0  0  0  0  0  0  0  0
   29.8591    1.3070    6.0701 H   0  0  0  0  0  0  0  0  0  0  0  0
   29.6886    3.0636    6.1509 H   0  0  0  0  0  0  0  0  0  0  0  0
   27.8136   -0.0111    6.2896 H   0  0  0  0  0  0  0  0  0  0  0  0
   25.1239   -0.4246    7.4813 H   0  0  0  0  0  0  0  0  0  0  0  0
   27.6247    4.0093    5.0576 H   0  0  0  0  0  0  0  0  0  0  0  0
   23.3779    6.4664    6.2057 H   0  0  0  0  0  0  0  0  0  0  0  0
   24.5135    5.4466    7.0952 H   0  0  0  0  0  0  0  0  0  0  0  0
   22.7767    5.0943    7.2173 H   0  0  0  0  0  0  0  0  0  0  0  0
   22.7192    4.6949    3.3804 H   0  0  0  0  0  0  0  0  0  0  0  0
   24.2588    5.5901    3.4227 H   0  0  0  0  0  0  0  0  0  0  0  0
   22.8222    6.2436    4.2847 H   0  0  0  0  0  0  0  0  0  0  0  0
   23.2410    2.9408    4.0679 H   0  0  0  0  0  0  0  0  0  0  0  0
   21.1836    4.0090    4.5511 H   0  0  0  0  0  0  0  0  0  0  0  0
   21.3352    3.7687    6.2788 H   0  0  0  0  0  0  0  0  0  0  0  0
   20.0807    2.0693    4.4239 H   0  0  0  0  0  0  0  0  0  0  0  0
   20.4309    1.8062    6.2166 H   0  0  0  0  0  0  0  0  0  0  0  0
   20.2914   -0.5810    4.4184 H   0  0  0  0  0  0  0  0  0  0  0  0
   21.0607    0.1919    2.9859 H   0  0  0  0  0  0  0  0  0  0  0  0
   21.9622   -1.0579    3.9041 H   0  0  0  0  0  0  0  0  0  0  0  0
   23.7228    0.0367    4.9316 H   0  0  0  0  0  0  0  0  0  0  0  0
   23.3120    2.0239    6.9869 H   0  0  0  0  0  0  0  0  0  0  0  0
  1  2  1  0
  2  3  1  0
  3  4  1  0
  4  5  1  0
  5  6  1  0
  6  7  2  0
  7  8  1  0
  8  9  1  0
  8 10  2  0
 10 11  1  0
 11 12  2  0
 11 13  1  0
 13 14  1  0
 14 15  1  0
 14 16  1  0
 14 17  1  0
 17 18  1  0
 18 19  1  0
 19 20  1  0
 20 21  1  0
 20 22  2  0
 22 23  1  0
 12  6  1  0
 23 17  1  0
 23 10  1  0
  1 24  1  0
  1 25  1  0
  1 26  1  0
  2 27  1  0
  2 28  1  0
  3 29  1  0
  3 30  1  0
  4 31  1  0
  4 32  1  0
  5 33  1  0
  5 34  1  0
  7 35  1  0
  9 36  1  0
 12 37  1  0
 15 38  1  0
 15 39  1  0
 15 40  1  0
 16 41  1  0
 16 42  1  0
 16 43  1  0
 17 44  1  6
 18 45  1  0
 18 46  1  0
 19 47  1  0
 19 48  1  0
 21 49  1  0
 21 50  1  0
 21 51  1  0
 22 52  1  0
 23 53  1  1
M  END
$$$$
