
     RDKit          3D

 53 55  0  0  0  0  0  0  0  0999 V2000
   33.0029    3.9173    5.3939 C   0  0  0  0  0  0  0  0  0  0  0  0
   31.8431    3.1307    4.8270 C   0  0  0  0  0  0  0  0  0  0  0  0
   31.8133    1.7600    5.4689 C   0  0  0  0  0  0  0  0  0  0  0  0
   31.1118    0.7844    4.5851 C   0  0  0  0  0  0  0  0  0  0  0  0
   29.8664    1.2372    3.9900 C   0  0  0  0  0  0  0  0  0  0  0  0
   28.6688    1.5156    4.7902 C   0  0  0  0  0  0  0  0  0  0  0  0
   28.0150    0.3915    5.3777 C   0  0  0  0  0  0  0  0  0  0  0  0
   26.6638    0.6563    5.6879 C   0  0  0  0  0  0  0  0  0  0  0  0
   26.0068   -0.4571    6.2682 O   0  0  0  0  0  0  0  0  0  0  0  0
   26.0181    1.7956    5.4691 C   0  0  0  0  0  0  0  0  0  0  0  0
   26.7248    2.8444    4.9814 C   0  0  0  0  0  0  0  0  0  0  0  0
   28.0269    2.6652    4.6640 C   0  0  0  0  0  0  0  0  0  0  0  0
   26.1461    4.0672    4.8726 O   0  0  0  0  0  0  0  0  0  0  0  0
   24.7931    4.3313    5.1630 C   0  0  0  0  0  0  0  0  0  0  0  0
   24.4075    4.7892    6.4611 C   0  0  0  0  0  0  0  0  0  0  0  0
   24.4583    5.4478    4.0999 C   0  0  0  0  0  0  0  0  0  0  0  0
   24.1111    3.1611    4.6007 C   0  0  2  0  0  0  0  0  0  0  0  0
   22.6416    3.1135    4.5687 C   0  0  0  0  0  0  0  0  0  0  0  0
   21.9592    2.4193    5.7449 C   0  0  0  0  0  0  0  0  0  0  0  0
   22.3708    1.0061    5.1661 C   0  0  0  0  0  0  0  0  0  0  0  0
   21.3339    0.0778    4.7048 C   0  0  0  0  0  0  0  0  0  0  0  0
   23.6775    0.8453    5.0969 C   0  0  0  0  0  0  0  0  0  0  0  0
   24.5628    1.9057    5.5321 C   0  0  1  0  0  0  0  0  0  0  0  0
   32.8715    4.9731    5.1769 H   0  0  0  0  0  0  0  0  0  0  0  0
   33.9452    3.5831    4.8354 H   0  0  0  0  0  0  0  0  0  0  0  0
   33.2190    3.7508    6.4408 H   0  0  0  0  0  0  0  0  0  0  0  0
   30.9372    3.6734    5.3017 H   0  0  0  0  0  0  0  0  0  0  0  0
   31.8042    3.1917    3.7716 H   0  0  0  0  0  0  0  0  0  0  0  0
   32.8964    1.4406    5.4977 H   0  0  0  0  0  0  0  0  0  0  0  0
   31.4194    1.7733    6.4680 H   0  0  0  0  0  0  0  0  0  0  0  0
   31.7687    0.3004    3.8364 H   0  0  0  0  0  0  0  0  0  0  0  0
   30.8011   -0.0781    5.2800 H   0  0  0  0  0  0  0  0  0  0  0  0
   29.5864    0.4986    3.1666 H   0  0  0  0  0  0  0  0  0  0  0  0
   30.0837    2.1651    3.3094 H   0  0  0  0  0  0  0  0  0  0  0  0
   28.5673   -0.4716    5.5657 H   0  0  0  0  0  0  0  0  0  0  0  0
   25.2066   -0.9253    6.2143 H   0  0  0  0  0  0  0  0  0  0  0  0
   28.5719    3.5346    4.2302 H   0  0  0  0  0  0  0  0  0  0  0  0
   23.2667    4.8944    6.5557 H   0  0  0  0  0  0  0  0  0  0  0  0
   24.7757    5.8240    6.6531 H   0  0  0  0  0  0  0  0  0  0  0  0
   24.7909    4.1424    7.3019 H   0  0  0  0  0  0  0  0  0  0  0  0
   23.6566    5.0987    3.4362 H   0  0  0  0  0  0  0  0  0  0  0  0
   24.2130    6.3667    4.6203 H   0  0  0  0  0  0  0  0  0  0  0  0
   25.3504    5.6485    3.4642 H   0  0  0  0  0  0  0  0  0  0  0  0
   24.5320    2.8362    3.6582 H   0  0  0  0  0  0  0  0  0  0  0  0
   22.2525    4.2228    4.6785 H   0  0  0  0  0  0  0  0  0  0  0  0
   22.2541    2.8019    3.6198 H   0  0  0  0  0  0  0  0  0  0  0  0
   20.8600    2.5140    5.5343 H   0  0  0  0  0  0  0  0  0  0  0  0
   22.3431    2.6433    6.6616 H   0  0  0  0  0  0  0  0  0  0  0  0
   20.9960    0.5288    3.6985 H   0  0  0  0  0  0  0  0  0  0  0  0
   20.4265    0.1566    5.3349 H   0  0  0  0  0  0  0  0  0  0  0  0
   21.6382   -0.9584    4.5908 H   0  0  0  0  0  0  0  0  0  0  0  0
   24.0185   -0.0439    4.5161 H   0  0  0  0  0  0  0  0  0  0  0  0
   24.3115    2.1857    6.6258 H   0  0  0  0  0  0  0  0  0  0  0  0
  1  2  1  0
  2  3  1  0
  3  4  1  0
  4  5  1  0
  5  6  1  0
  6  7  2  0
  7  8  1  0
  8  9  1  0
  8 10  2  0
 10 11  1  0
 11 12  2  0
 11 13  1  0
 13 14  1  0
 14 15  1  0
 14 16  1  0
 14 17  1  0
 17 18  1  0
 18 19  1  0
 19 20  1  0
 20 21  1  0
 20 22  2  0
 22 23  1  0
 12  6  1  0
 23 17  1  0
 23 10  1  0
  1 24  1  0
  1 25  1  0
  1 26  1  0
  2 27  1  0
  2 28  1  0
  3 29  1  0
  3 30  1  0
  4 31  1  0
  4 32  1  0
  5 33  1  0
  5 34  1  0
  7 35  1  0
  9 36  1  0
 12 37  1  0
 15 38  1  0
 15 39  1  0
 15 40  1  0
 16 41  1  0
 16 42  1  0
 16 43  1  0
 17 44  1  6
 18 45  1  0
 18 46  1  0
 19 47  1  0
 19 48  1  0
 21 49  1  0
 21 50  1  0
 21 51  1  0
 22 52  1  0
 23 53  1  1
M  END
$$$$
