
     RDKit          3D

 53 55  0  0  0  0  0  0  0  0999 V2000
   23.3687    3.5441    4.6881 C   0  0  0  0  0  0  0  0  0  0  0  0
   23.4576    2.0240    4.7448 C   0  0  0  0  0  0  0  0  0  0  0  0
   24.2029    1.5454    5.9881 C   0  0  0  0  0  0  0  0  0  0  0  0
   24.2971    0.0236    6.0490 C   0  0  0  0  0  0  0  0  0  0  0  0
   25.0448   -0.4629    7.2970 C   0  0  0  0  0  0  0  0  0  0  0  0
   26.4794   -0.0199    7.2814 C   0  0  0  0  0  0  0  0  0  0  0  0
   26.9089    1.0471    8.0567 C   0  0  0  0  0  0  0  0  0  0  0  0
   28.2234    1.4876    8.0000 C   0  0  0  0  0  0  0  0  0  0  0  0
   28.6329    2.5155    8.8042 O   0  0  0  0  0  0  0  0  0  0  0  0
   29.1488    0.8846    7.1442 C   0  0  0  0  0  0  0  0  0  0  0  0
   28.7282   -0.2400    6.4302 C   0  0  0  0  0  0  0  0  0  0  0  0
   27.4037   -0.6677    6.4842 C   0  0  0  0  0  0  0  0  0  0  0  0
   29.5505   -0.9941    5.6540 O   0  0  0  0  0  0  0  0  0  0  0  0
   30.9637   -0.8221    5.8106 C   0  0  0  0  0  0  0  0  0  0  0  0
   31.4200   -1.5310    7.0896 C   0  0  0  0  0  0  0  0  0  0  0  0
   31.5746   -1.5133    4.5897 C   0  0  0  0  0  0  0  0  0  0  0  0
   31.2471    0.6861    5.8163 C   0  0  2  0  0  0  0  0  0  0  0  0
   32.7123    1.1079    5.7980 C   0  0  0  0  0  0  0  0  0  0  0  0
   32.7868    2.6000    5.4722 C   0  0  0  0  0  0  0  0  0  0  0  0
   31.7238    3.4049    6.1713 C   0  0  0  0  0  0  0  0  0  0  0  0
   31.8629    4.8913    6.0268 C   0  0  0  0  0  0  0  0  0  0  0  0
   30.7243    2.8519    6.8433 C   0  0  0  0  0  0  0  0  0  0  0  0
   30.5751    1.3633    7.0150 C   0  0  1  0  0  0  0  0  0  0  0  0
   22.8390    3.9283    5.5574 H   0  0  0  0  0  0  0  0  0  0  0  0
   24.3642    3.9825    4.6733 H   0  0  0  0  0  0  0  0  0  0  0  0
   22.8385    3.8652    3.7944 H   0  0  0  0  0  0  0  0  0  0  0  0
   22.4500    1.6009    4.7411 H   0  0  0  0  0  0  0  0  0  0  0  0
   23.9733    1.6576    3.8544 H   0  0  0  0  0  0  0  0  0  0  0  0
   23.6869    1.9120    6.8793 H   0  0  0  0  0  0  0  0  0  0  0  0
   25.2105    1.9665    5.9888 H   0  0  0  0  0  0  0  0  0  0  0  0
   24.8153   -0.3407    5.1599 H   0  0  0  0  0  0  0  0  0  0  0  0
   23.2903   -0.4015    6.0491 H   0  0  0  0  0  0  0  0  0  0  0  0
   24.5453   -0.0773    8.1882 H   0  0  0  0  0  0  0  0  0  0  0  0
   25.0031   -1.5538    7.3280 H   0  0  0  0  0  0  0  0  0  0  0  0
   26.2145    1.5452    8.7216 H   0  0  0  0  0  0  0  0  0  0  0  0
   27.8897    2.8006    9.3492 H   0  0  0  0  0  0  0  0  0  0  0  0
   27.1248   -1.5286    5.8974 H   0  0  0  0  0  0  0  0  0  0  0  0
   31.2578   -2.6016    6.9868 H   0  0  0  0  0  0  0  0  0  0  0  0
   32.4764   -1.3502    7.2658 H   0  0  0  0  0  0  0  0  0  0  0  0
   30.8484   -1.1839    7.9466 H   0  0  0  0  0  0  0  0  0  0  0  0
   32.6466   -1.6332    4.7113 H   0  0  0  0  0  0  0  0  0  0  0  0
   31.3743   -0.9394    3.6887 H   0  0  0  0  0  0  0  0  0  0  0  0
   31.1211   -2.4948    4.4786 H   0  0  0  0  0  0  0  0  0  0  0  0
   30.7706    1.0803    4.9088 H   0  0  0  0  0  0  0  0  0  0  0  0
   33.2773    0.5456    5.0539 H   0  0  0  0  0  0  0  0  0  0  0  0
   33.1603    0.9224    6.7760 H   0  0  0  0  0  0  0  0  0  0  0  0
   33.7727    2.9920    5.7375 H   0  0  0  0  0  0  0  0  0  0  0  0
   32.6687    2.7438    4.3922 H   0  0  0  0  0  0  0  0  0  0  0  0
   31.8850    5.1699    4.9732 H   0  0  0  0  0  0  0  0  0  0  0  0
   32.7962    5.2299    6.4770 H   0  0  0  0  0  0  0  0  0  0  0  0
   31.0376    5.4086    6.5082 H   0  0  0  0  0  0  0  0  0  0  0  0
   29.9903    3.4731    7.3286 H   0  0  0  0  0  0  0  0  0  0  0  0
   31.1077    1.0923    7.9394 H   0  0  0  0  0  0  0  0  0  0  0  0
  1  2  1  0
  2  3  1  0
  3  4  1  0
  4  5  1  0
  5  6  1  0
  6  7  2  0
  7  8  1  0
  8  9  1  0
  8 10  2  0
 10 11  1  0
 11 12  2  0
 11 13  1  0
 13 14  1  0
 14 15  1  0
 14 16  1  0
 14 17  1  0
 17 18  1  0
 18 19  1  0
 19 20  1  0
 20 21  1  0
 20 22  2  0
 22 23  1  0
 12  6  1  0
 23 17  1  0
 23 10  1  0
  1 24  1  0
  1 25  1  0
  1 26  1  0
  2 27  1  0
  2 28  1  0
  3 29  1  0
  3 30  1  0
  4 31  1  0
  4 32  1  0
  5 33  1  0
  5 34  1  0
  7 35  1  0
  9 36  1  0
 12 37  1  0
 15 38  1  0
 15 39  1  0
 15 40  1  0
 16 41  1  0
 16 42  1  0
 16 43  1  0
 17 44  1  6
 18 45  1  0
 18 46  1  0
 19 47  1  0
 19 48  1  0
 21 49  1  0
 21 50  1  0
 21 51  1  0
 22 52  1  0
 23 53  1  1
M  END
$$$$
