
     RDKit          3D

 53 55  0  0  0  0  0  0  0  0999 V2000
   32.8495   -0.7372    4.6775 C   0  0  0  0  0  0  0  0  0  0  0  0
   32.7633    0.7828    4.7402 C   0  0  0  0  0  0  0  0  0  0  0  0
   32.0180    1.2580    5.9847 C   0  0  0  0  0  0  0  0  0  0  0  0
   31.9267    2.7797    6.0514 C   0  0  0  0  0  0  0  0  0  0  0  0
   31.1798    3.2631    7.3011 C   0  0  0  0  0  0  0  0  0  0  0  0
   29.7447    2.8218    7.2844 C   0  0  0  0  0  0  0  0  0  0  0  0
   29.3132    1.7557    8.0596 C   0  0  0  0  0  0  0  0  0  0  0  0
   27.9980    1.3170    8.0022 C   0  0  0  0  0  0  0  0  0  0  0  0
   27.0742    1.9209    7.1454 C   0  0  0  0  0  0  0  0  0  0  0  0
   25.6474    1.4438    7.0144 C   0  0  2  0  0  0  0  0  0  0  0  0
   25.4965   -0.0449    6.8447 C   0  0  0  0  0  0  0  0  0  0  0  0
   24.4985   -0.5978    6.1704 C   0  0  0  0  0  0  0  0  0  0  0  0
   23.4390    0.2073    5.4661 C   0  0  0  0  0  0  0  0  0  0  0  0
   23.5133    1.6994    5.7914 C   0  0  0  0  0  0  0  0  0  0  0  0
   24.9787    2.1204    5.8136 C   0  0  1  0  0  0  0  0  0  0  0  0
   25.2628    3.6285    5.8079 C   0  0  0  0  0  0  0  0  0  0  0  0
   26.6764    3.7998    5.6542 O   0  0  0  0  0  0  0  0  0  0  0  0
   27.4968    3.0448    6.4315 C   0  0  0  0  0  0  0  0  0  0  0  0
   28.8218    3.4708    6.4865 C   0  0  0  0  0  0  0  0  0  0  0  0
   24.6546    4.3197    4.5856 C   0  0  0  0  0  0  0  0  0  0  0  0
   24.8041    4.3381    7.0857 C   0  0  0  0  0  0  0  0  0  0  0  0
   24.3577   -2.0843    6.0287 C   0  0  0  0  0  0  0  0  0  0  0  0
   27.5867    0.2900    8.8067 O   0  0  0  0  0  0  0  0  0  0  0  0
   31.8531   -1.1737    4.6600 H   0  0  0  0  0  0  0  0  0  0  0  0
   33.3799   -1.0558    3.7831 H   0  0  0  0  0  0  0  0  0  0  0  0
   33.3776   -1.1258    5.5459 H   0  0  0  0  0  0  0  0  0  0  0  0
   33.7717    1.2040    4.7389 H   0  0  0  0  0  0  0  0  0  0  0  0
   32.2491    1.1537    3.8507 H   0  0  0  0  0  0  0  0  0  0  0  0
   32.5326    0.8870    6.8749 H   0  0  0  0  0  0  0  0  0  0  0  0
   31.0095    0.8388    5.9832 H   0  0  0  0  0  0  0  0  0  0  0  0
   32.9342    3.2029    6.0531 H   0  0  0  0  0  0  0  0  0  0  0  0
   31.4092    3.1482    5.1635 H   0  0  0  0  0  0  0  0  0  0  0  0
   31.6790    2.8739    8.1908 H   0  0  0  0  0  0  0  0  0  0  0  0
   31.2229    4.3538    7.3356 H   0  0  0  0  0  0  0  0  0  0  0  0
   30.0064    1.2566    8.7251 H   0  0  0  0  0  0  0  0  0  0  0  0
   25.1135    1.7168    7.9375 H   0  0  0  0  0  0  0  0  0  0  0  0
   26.2279   -0.6662    7.3337 H   0  0  0  0  0  0  0  0  0  0  0  0
   23.5617    0.0627    4.3867 H   0  0  0  0  0  0  0  0  0  0  0  0
   22.4518   -0.1839    5.7275 H   0  0  0  0  0  0  0  0  0  0  0  0
   23.0627    1.8855    6.7681 H   0  0  0  0  0  0  0  0  0  0  0  0
   22.9505    2.2616    5.0454 H   0  0  0  0  0  0  0  0  0  0  0  0
   25.4574    1.7256    4.9076 H   0  0  0  0  0  0  0  0  0  0  0  0
   29.1021    4.3314    5.9000 H   0  0  0  0  0  0  0  0  0  0  0  0
   24.8560    3.7452    3.6852 H   0  0  0  0  0  0  0  0  0  0  0  0
   23.5826    4.4406    4.7052 H   0  0  0  0  0  0  0  0  0  0  0  0
   25.1093    5.3007    4.4749 H   0  0  0  0  0  0  0  0  0  0  0  0
   23.7475    4.1568    7.2604 H   0  0  0  0  0  0  0  0  0  0  0  0
   25.3747    3.9920    7.9438 H   0  0  0  0  0  0  0  0  0  0  0  0
   24.9658    5.4087    6.9824 H   0  0  0  0  0  0  0  0  0  0  0  0
   24.3384   -2.3651    4.9757 H   0  0  0  0  0  0  0  0  0  0  0  0
   25.1809   -2.6017    6.5137 H   0  0  0  0  0  0  0  0  0  0  0  0
   23.4227   -2.4206    6.4769 H   0  0  0  0  0  0  0  0  0  0  0  0
   28.3292    0.0042    9.3522 H   0  0  0  0  0  0  0  0  0  0  0  0
  1  2  1  0
  2  3  1  0
  3  4  1  0
  4  5  1  0
  5  6  1  0
  6  7  2  0
  7  8  1  0
  8  9  2  0
  9 10  1  0
 10 11  1  0
 11 12  2  0
 12 13  1  0
 13 14  1  0
 14 15  1  0
 15 16  1  0
 16 17  1  0
 17 18  1  0
 18 19  2  0
 16 20  1  0
 16 21  1  0
 12 22  1  0
  8 23  1  0
 19  6  1  0
 18  9  1  0
 15 10  1  0
  1 24  1  0
  1 25  1  0
  1 26  1  0
  2 27  1  0
  2 28  1  0
  3 29  1  0
  3 30  1  0
  4 31  1  0
  4 32  1  0
  5 33  1  0
  5 34  1  0
  7 35  1  0
 10 36  1  1
 11 37  1  0
 13 38  1  0
 13 39  1  0
 14 40  1  0
 14 41  1  0
 15 42  1  6
 19 43  1  0
 20 44  1  0
 20 45  1  0
 20 46  1  0
 21 47  1  0
 21 48  1  0
 21 49  1  0
 22 50  1  0
 22 51  1  0
 22 52  1  0
 23 53  1  0
M  END
$$$$
