
     RDKit          3D

 45 48  0  0  0  0  0  0  0  0999 V2000
   23.0133    4.0121    6.7256 C   0  0  0  0  0  0  0  0  0  0  0  0
   23.2002    3.0522    5.6277 C   0  0  2  0  0  0  0  0  0  0  0  0
   22.0964    3.0835    4.7206 O   0  0  0  0  0  0  0  0  0  0  0  0
   23.0585    1.6063    6.2031 C   0  0  0  0  0  0  0  0  0  0  0  0
   24.3744    0.9995    6.0217 C   0  0  0  0  0  0  0  0  0  0  0  0
   25.3181    2.3671    5.8106 C   0  0  1  0  0  0  0  0  0  0  0  0
   26.5296    1.7841    5.2806 C   0  0  2  0  0  0  0  0  0  0  0  0
   27.4203    0.8885    5.9418 C   0  0  0  0  0  0  0  0  0  0  0  0
   28.2006    1.3827    7.0479 C   0  0  0  0  0  0  0  0  0  0  0  0
   29.1162    2.3892    6.2252 C   0  0  0  0  0  0  0  0  0  0  0  0
   30.4301    2.1701    6.3430 C   0  0  0  0  0  0  0  0  0  0  0  0
   31.2217    3.0876    5.5267 C   0  0  0  0  0  0  0  0  0  0  0  0
   32.4510    3.0902    5.7445 O   0  0  0  0  0  0  0  0  0  0  0  0
   30.5502    3.9331    4.5230 C   0  0  0  0  0  0  0  0  0  0  0  0
   29.2557    4.6446    5.0632 C   0  0  0  0  0  0  0  0  0  0  0  0
   28.4695    3.3370    5.3290 C   0  0  0  0  0  0  0  0  0  0  0  0
   27.2244    3.1922    4.9988 C   0  0  0  0  0  0  0  0  0  0  0  0
   26.4799    4.3773    4.6728 C   0  0  0  0  0  0  0  0  0  0  0  0
   25.0438    4.3128    4.6024 C   0  0  0  0  0  0  0  0  0  0  0  0
   24.3815    2.9876    4.8031 C   0  0  2  0  0  0  0  0  0  0  0  0
   24.2997    2.4008    3.4648 C   0  0  0  0  0  0  0  0  0  0  0  0
   23.6744    3.7537    7.5941 H   0  0  0  0  0  0  0  0  0  0  0  0
   21.9212    3.9427    7.0562 H   0  0  0  0  0  0  0  0  0  0  0  0
   23.2249    5.0649    6.3540 H   0  0  0  0  0  0  0  0  0  0  0  0
   22.0217    2.1696    4.3372 H   0  0  0  0  0  0  0  0  0  0  0  0
   22.3654    1.0176    5.5383 H   0  0  0  0  0  0  0  0  0  0  0  0
   22.6917    1.5706    7.2064 H   0  0  0  0  0  0  0  0  0  0  0  0
   24.8380    0.7819    7.0664 H   0  0  0  0  0  0  0  0  0  0  0  0
   24.7008    0.2210    5.4182 H   0  0  0  0  0  0  0  0  0  0  0  0
   25.3372    2.8589    6.7423 H   0  0  0  0  0  0  0  0  0  0  0  0
   26.3271    1.4087    4.2775 H   0  0  0  0  0  0  0  0  0  0  0  0
   26.7107    0.0888    6.4868 H   0  0  0  0  0  0  0  0  0  0  0  0
   27.9467    0.1827    5.3027 H   0  0  0  0  0  0  0  0  0  0  0  0
   27.5406    2.1427    7.6651 H   0  0  0  0  0  0  0  0  0  0  0  0
   28.7543    0.7195    7.6137 H   0  0  0  0  0  0  0  0  0  0  0  0
   30.8708    1.4167    6.9829 H   0  0  0  0  0  0  0  0  0  0  0  0
   31.2632    4.7509    4.1600 H   0  0  0  0  0  0  0  0  0  0  0  0
   30.2057    3.3596    3.6041 H   0  0  0  0  0  0  0  0  0  0  0  0
   28.9273    5.1830    4.2096 H   0  0  0  0  0  0  0  0  0  0  0  0
   29.4929    5.0924    5.9938 H   0  0  0  0  0  0  0  0  0  0  0  0
   26.9186    5.3184    4.5718 H   0  0  0  0  0  0  0  0  0  0  0  0
   24.5189    5.1855    4.4310 H   0  0  0  0  0  0  0  0  0  0  0  0
   24.4414    1.3522    3.2913 H   0  0  0  0  0  0  0  0  0  0  0  0
   25.1396    2.9249    2.8023 H   0  0  0  0  0  0  0  0  0  0  0  0
   23.3770    2.7945    2.9844 H   0  0  0  0  0  0  0  0  0  0  0  0
  1  2  1  0
  2  3  1  6
  2  4  1  0
  4  5  1  0
  5  6  1  0
  6  7  1  0
  7  8  1  0
  8  9  1  0
  9 10  1  0
 10 11  2  0
 11 12  1  0
 12 13  2  0
 12 14  1  0
 14 15  1  0
 15 16  1  0
 16 17  2  0
 17 18  1  0
 18 19  2  0
 19 20  1  0
 20 21  1  6
 20  2  1  0
 20  6  1  0
 17  7  1  0
 16 10  1  0
  1 22  1  0
  1 23  1  0
  1 24  1  0
  3 25  1  0
  4 26  1  0
  4 27  1  0
  5 28  1  0
  5 29  1  0
  6 30  1  1
  7 31  1  6
  8 32  1  0
  8 33  1  0
  9 34  1  0
  9 35  1  0
 11 36  1  0
 14 37  1  0
 14 38  1  0
 15 39  1  0
 15 40  1  0
 18 41  1  0
 19 42  1  0
 21 43  1  0
 21 44  1  0
 21 45  1  0
M  END
$$$$
