
     RDKit          3D

 45 48  0  0  0  0  0  0  0  0999 V2000
   23.6894    4.1190    6.6196 C   0  0  0  0  0  0  0  0  0  0  0  0
   23.4294    3.0601    5.6376 C   0  0  2  0  0  0  0  0  0  0  0  0
   22.3738    3.3513    4.7614 O   0  0  0  0  0  0  0  0  0  0  0  0
   23.1338    1.6660    6.1629 C   0  0  0  0  0  0  0  0  0  0  0  0
   24.4597    0.9446    6.1824 C   0  0  0  0  0  0  0  0  0  0  0  0
   25.4515    2.0420    5.8878 C   0  0  1  0  0  0  0  0  0  0  0  0
   26.8502    1.7339    5.7294 C   0  0  2  0  0  0  0  0  0  0  0  0
   27.4961    1.1137    6.9812 C   0  0  0  0  0  0  0  0  0  0  0  0
   28.9132    0.8378    6.5259 C   0  0  0  0  0  0  0  0  0  0  0  0
   29.5611    2.0749    6.0946 C   0  0  0  0  0  0  0  0  0  0  0  0
   30.9106    2.1130    6.1628 C   0  0  0  0  0  0  0  0  0  0  0  0
   31.6068    3.3209    5.6960 C   0  0  0  0  0  0  0  0  0  0  0  0
   32.7996    3.5635    5.9965 O   0  0  0  0  0  0  0  0  0  0  0  0
   30.7772    4.2138    4.8348 C   0  0  0  0  0  0  0  0  0  0  0  0
   29.5136    4.5455    5.4859 C   0  0  0  0  0  0  0  0  0  0  0  0
   28.7853    3.2530    5.7048 C   0  0  0  0  0  0  0  0  0  0  0  0
   27.5075    3.0841    5.4760 C   0  0  0  0  0  0  0  0  0  0  0  0
   26.7504    4.1600    4.8916 C   0  0  0  0  0  0  0  0  0  0  0  0
   25.4534    4.0213    4.5665 C   0  0  0  0  0  0  0  0  0  0  0  0
   24.7048    2.7172    4.7942 C   0  0  2  0  0  0  0  0  0  0  0  0
   24.3401    1.9794    3.6164 C   0  0  0  0  0  0  0  0  0  0  0  0
   24.5681    4.7136    6.2934 H   0  0  0  0  0  0  0  0  0  0  0  0
   23.7022    3.7071    7.6305 H   0  0  0  0  0  0  0  0  0  0  0  0
   22.7786    4.8129    6.6565 H   0  0  0  0  0  0  0  0  0  0  0  0
   21.5715    2.8193    4.9633 H   0  0  0  0  0  0  0  0  0  0  0  0
   22.6375    1.7444    7.1371 H   0  0  0  0  0  0  0  0  0  0  0  0
   22.4693    1.1720    5.4297 H   0  0  0  0  0  0  0  0  0  0  0  0
   24.5289    0.0469    5.5725 H   0  0  0  0  0  0  0  0  0  0  0  0
   24.6555    0.6004    7.2428 H   0  0  0  0  0  0  0  0  0  0  0  0
   25.3776    2.7594    6.7963 H   0  0  0  0  0  0  0  0  0  0  0  0
   27.1365    1.0787    4.9324 H   0  0  0  0  0  0  0  0  0  0  0  0
   26.9374    0.1880    7.2164 H   0  0  0  0  0  0  0  0  0  0  0  0
   27.5354    1.8872    7.7996 H   0  0  0  0  0  0  0  0  0  0  0  0
   28.7591    0.1678    5.6231 H   0  0  0  0  0  0  0  0  0  0  0  0
   29.5173    0.2731    7.2665 H   0  0  0  0  0  0  0  0  0  0  0  0
   31.4724    1.2648    6.5125 H   0  0  0  0  0  0  0  0  0  0  0  0
   31.3991    5.1274    4.6578 H   0  0  0  0  0  0  0  0  0  0  0  0
   30.6184    3.6940    3.8805 H   0  0  0  0  0  0  0  0  0  0  0  0
   28.8996    5.3613    5.1393 H   0  0  0  0  0  0  0  0  0  0  0  0
   29.8230    4.8094    6.5611 H   0  0  0  0  0  0  0  0  0  0  0  0
   27.1769    5.1066    4.6810 H   0  0  0  0  0  0  0  0  0  0  0  0
   24.8807    4.8390    4.1375 H   0  0  0  0  0  0  0  0  0  0  0  0
   23.2526    1.6466    3.5147 H   0  0  0  0  0  0  0  0  0  0  0  0
   24.4846    2.5864    2.6678 H   0  0  0  0  0  0  0  0  0  0  0  0
   24.8954    1.0186    3.4460 H   0  0  0  0  0  0  0  0  0  0  0  0
  1  2  1  0
  2  3  1  6
  2  4  1  0
  4  5  1  0
  5  6  1  0
  6  7  1  0
  7  8  1  0
  8  9  1  0
  9 10  1  0
 10 11  2  0
 11 12  1  0
 12 13  2  0
 12 14  1  0
 14 15  1  0
 15 16  1  0
 16 17  2  0
 17 18  1  0
 18 19  2  0
 19 20  1  0
 20 21  1  6
 20  2  1  0
 20  6  1  0
 17  7  1  0
 16 10  1  0
  1 22  1  0
  1 23  1  0
  1 24  1  0
  3 25  1  0
  4 26  1  0
  4 27  1  0
  5 28  1  0
  5 29  1  0
  6 30  1  1
  7 31  1  6
  8 32  1  0
  8 33  1  0
  9 34  1  0
  9 35  1  0
 11 36  1  0
 14 37  1  0
 14 38  1  0
 15 39  1  0
 15 40  1  0
 18 41  1  0
 19 42  1  0
 21 43  1  0
 21 44  1  0
 21 45  1  0
M  END
$$$$
