
     RDKit          3D

 45 48  0  0  0  0  0  0  0  0999 V2000
   23.0696    4.6022    6.5321 C   0  0  0  0  0  0  0  0  0  0  0  0
   23.2462    3.3655    5.8462 C   0  0  2  0  0  0  0  0  0  0  0  0
   22.0331    3.2318    4.9641 O   0  0  0  0  0  0  0  0  0  0  0  0
   23.0864    2.0290    6.5898 C   0  0  0  0  0  0  0  0  0  0  0  0
   24.3300    1.2856    6.1349 C   0  0  0  0  0  0  0  0  0  0  0  0
   25.3103    2.4852    5.8203 C   0  0  1  0  0  0  0  0  0  0  0  0
   26.4792    1.9652    5.1689 C   0  0  2  0  0  0  0  0  0  0  0  0
   27.4626    0.9989    5.5475 C   0  0  0  0  0  0  0  0  0  0  0  0
   28.4315    1.2761    6.6566 C   0  0  0  0  0  0  0  0  0  0  0  0
   29.2023    2.4570    6.1603 C   0  0  0  0  0  0  0  0  0  0  0  0
   30.4775    2.5184    6.4873 C   0  0  0  0  0  0  0  0  0  0  0  0
   31.2202    3.5986    5.9860 C   0  0  0  0  0  0  0  0  0  0  0  0
   32.3794    3.8483    6.4784 O   0  0  0  0  0  0  0  0  0  0  0  0
   30.6275    4.4105    4.8540 C   0  0  0  0  0  0  0  0  0  0  0  0
   29.2121    4.7472    5.1971 C   0  0  0  0  0  0  0  0  0  0  0  0
   28.4646    3.4435    5.3993 C   0  0  0  0  0  0  0  0  0  0  0  0
   27.2178    3.3523    4.9810 C   0  0  0  0  0  0  0  0  0  0  0  0
   26.4019    4.4426    4.5247 C   0  0  0  0  0  0  0  0  0  0  0  0
   25.0439    4.3769    4.4520 C   0  0  0  0  0  0  0  0  0  0  0  0
   24.3380    3.1099    4.8535 C   0  0  2  0  0  0  0  0  0  0  0  0
   24.0736    2.4583    3.5884 C   0  0  0  0  0  0  0  0  0  0  0  0
   22.1967    4.4540    7.2798 H   0  0  0  0  0  0  0  0  0  0  0  0
   23.8834    5.0137    7.1292 H   0  0  0  0  0  0  0  0  0  0  0  0
   22.5687    5.4059    5.8557 H   0  0  0  0  0  0  0  0  0  0  0  0
   21.9934    2.2528    4.6960 H   0  0  0  0  0  0  0  0  0  0  0  0
   23.2634    2.3459    7.6615 H   0  0  0  0  0  0  0  0  0  0  0  0
   22.1574    1.5502    6.4416 H   0  0  0  0  0  0  0  0  0  0  0  0
   24.1208    0.6874    5.2802 H   0  0  0  0  0  0  0  0  0  0  0  0
   24.8064    0.7347    6.9978 H   0  0  0  0  0  0  0  0  0  0  0  0
   25.4023    3.0942    6.6859 H   0  0  0  0  0  0  0  0  0  0  0  0
   26.2398    1.7601    4.0857 H   0  0  0  0  0  0  0  0  0  0  0  0
   26.8724    0.0024    5.7823 H   0  0  0  0  0  0  0  0  0  0  0  0
   28.0688    0.6899    4.6731 H   0  0  0  0  0  0  0  0  0  0  0  0
   29.0495    0.4080    6.8485 H   0  0  0  0  0  0  0  0  0  0  0  0
   27.9875    1.5933    7.6031 H   0  0  0  0  0  0  0  0  0  0  0  0
   30.9170    1.7355    7.0845 H   0  0  0  0  0  0  0  0  0  0  0  0
   30.7996    3.8842    3.9251 H   0  0  0  0  0  0  0  0  0  0  0  0
   31.2388    5.3620    4.8011 H   0  0  0  0  0  0  0  0  0  0  0  0
   28.8165    5.3625    4.4003 H   0  0  0  0  0  0  0  0  0  0  0  0
   29.1938    5.3182    6.1910 H   0  0  0  0  0  0  0  0  0  0  0  0
   26.8815    5.3667    4.2842 H   0  0  0  0  0  0  0  0  0  0  0  0
   24.5259    5.2528    4.1149 H   0  0  0  0  0  0  0  0  0  0  0  0
   23.1455    2.9163    3.1170 H   0  0  0  0  0  0  0  0  0  0  0  0
   24.8603    2.5930    2.8062 H   0  0  0  0  0  0  0  0  0  0  0  0
   23.7980    1.3682    3.6141 H   0  0  0  0  0  0  0  0  0  0  0  0
  1  2  1  0
  2  3  1  6
  2  4  1  0
  4  5  1  0
  5  6  1  0
  6  7  1  0
  7  8  1  0
  8  9  1  0
  9 10  1  0
 10 11  2  0
 11 12  1  0
 12 13  2  0
 12 14  1  0
 14 15  1  0
 15 16  1  0
 16 17  2  0
 17 18  1  0
 18 19  2  0
 19 20  1  0
 20 21  1  6
 20  2  1  0
 20  6  1  0
 17  7  1  0
 16 10  1  0
  1 22  1  0
  1 23  1  0
  1 24  1  0
  3 25  1  0
  4 26  1  0
  4 27  1  0
  5 28  1  0
  5 29  1  0
  6 30  1  1
  7 31  1  6
  8 32  1  0
  8 33  1  0
  9 34  1  0
  9 35  1  0
 11 36  1  0
 14 37  1  0
 14 38  1  0
 15 39  1  0
 15 40  1  0
 18 41  1  0
 19 42  1  0
 21 43  1  0
 21 44  1  0
 21 45  1  0
M  END
$$$$
