
     RDKit          3D

 45 48  0  0  0  0  0  0  0  0999 V2000
   22.7900    4.3721    5.8124 C   0  0  0  0  0  0  0  0  0  0  0  0
   23.4093    3.1137    5.5104 C   0  0  2  0  0  0  0  0  0  0  0  0
   22.6078    2.5733    4.3697 O   0  0  0  0  0  0  0  0  0  0  0  0
   23.2061    1.9325    6.4970 C   0  0  0  0  0  0  0  0  0  0  0  0
   24.5464    1.1724    6.3001 C   0  0  0  0  0  0  0  0  0  0  0  0
   25.4848    2.3690    6.1224 C   0  0  1  0  0  0  0  0  0  0  0  0
   26.8417    1.9372    5.6096 C   0  0  2  0  0  0  0  0  0  0  0  0
   27.6006    0.9824    6.4124 C   0  0  0  0  0  0  0  0  0  0  0  0
   28.9201    0.6986    5.6564 C   0  0  0  0  0  0  0  0  0  0  0  0
   29.5980    1.9990    5.4749 C   0  0  0  0  0  0  0  0  0  0  0  0
   30.9127    2.1022    5.7317 C   0  0  0  0  0  0  0  0  0  0  0  0
   31.6747    3.3177    5.6275 C   0  0  0  0  0  0  0  0  0  0  0  0
   32.6654    3.5551    6.1637 O   0  0  0  0  0  0  0  0  0  0  0  0
   30.9733    4.2648    4.6210 C   0  0  0  0  0  0  0  0  0  0  0  0
   29.5584    4.5070    4.9721 C   0  0  0  0  0  0  0  0  0  0  0  0
   28.8230    3.2364    5.2316 C   0  0  0  0  0  0  0  0  0  0  0  0
   27.5400    3.2023    5.3044 C   0  0  0  0  0  0  0  0  0  0  0  0
   26.7477    4.4554    5.2043 C   0  0  0  0  0  0  0  0  0  0  0  0
   25.4532    4.3736    5.0633 C   0  0  0  0  0  0  0  0  0  0  0  0
   24.7535    2.9666    4.9854 C   0  0  2  0  0  0  0  0  0  0  0  0
   24.9962    2.4578    3.6506 C   0  0  0  0  0  0  0  0  0  0  0  0
   23.2595    4.8996    6.6821 H   0  0  0  0  0  0  0  0  0  0  0  0
   21.7072    4.1940    6.0809 H   0  0  0  0  0  0  0  0  0  0  0  0
   22.7553    5.0105    4.8963 H   0  0  0  0  0  0  0  0  0  0  0  0
   22.6034    1.5984    4.3755 H   0  0  0  0  0  0  0  0  0  0  0  0
   23.2626    2.5108    7.4977 H   0  0  0  0  0  0  0  0  0  0  0  0
   22.3348    1.3758    6.3885 H   0  0  0  0  0  0  0  0  0  0  0  0
   24.7252    0.6156    7.2403 H   0  0  0  0  0  0  0  0  0  0  0  0
   24.4185    0.5910    5.4296 H   0  0  0  0  0  0  0  0  0  0  0  0
   25.6011    2.9441    7.0123 H   0  0  0  0  0  0  0  0  0  0  0  0
   26.6705    1.4354    4.5875 H   0  0  0  0  0  0  0  0  0  0  0  0
   27.0768    0.0115    6.4245 H   0  0  0  0  0  0  0  0  0  0  0  0
   27.8517    1.3699    7.4182 H   0  0  0  0  0  0  0  0  0  0  0  0
   29.5120   -0.0090    6.2540 H   0  0  0  0  0  0  0  0  0  0  0  0
   28.6830    0.2781    4.6619 H   0  0  0  0  0  0  0  0  0  0  0  0
   31.4391    1.1548    5.9599 H   0  0  0  0  0  0  0  0  0  0  0  0
   31.3091    4.0269    3.6560 H   0  0  0  0  0  0  0  0  0  0  0  0
   31.5346    5.2669    4.9033 H   0  0  0  0  0  0  0  0  0  0  0  0
   29.2931    5.4164    5.3941 H   0  0  0  0  0  0  0  0  0  0  0  0
   29.1346    4.6077    3.7851 H   0  0  0  0  0  0  0  0  0  0  0  0
   27.2359    5.4117    5.1362 H   0  0  0  0  0  0  0  0  0  0  0  0
   24.8464    5.2556    5.2259 H   0  0  0  0  0  0  0  0  0  0  0  0
   24.2160    2.8888    2.9711 H   0  0  0  0  0  0  0  0  0  0  0  0
   25.9794    2.7769    3.1868 H   0  0  0  0  0  0  0  0  0  0  0  0
   24.8772    1.3395    3.5924 H   0  0  0  0  0  0  0  0  0  0  0  0
  1  2  1  0
  2  3  1  6
  2  4  1  0
  4  5  1  0
  5  6  1  0
  6  7  1  0
  7  8  1  0
  8  9  1  0
  9 10  1  0
 10 11  2  0
 11 12  1  0
 12 13  2  0
 12 14  1  0
 14 15  1  0
 15 16  1  0
 16 17  2  0
 17 18  1  0
 18 19  2  0
 19 20  1  0
 20 21  1  6
 20  2  1  0
 20  6  1  0
 17  7  1  0
 16 10  1  0
  1 22  1  0
  1 23  1  0
  1 24  1  0
  3 25  1  0
  4 26  1  0
  4 27  1  0
  5 28  1  0
  5 29  1  0
  6 30  1  1
  7 31  1  6
  8 32  1  0
  8 33  1  0
  9 34  1  0
  9 35  1  0
 11 36  1  0
 14 37  1  0
 14 38  1  0
 15 39  1  0
 15 40  1  0
 18 41  1  0
 19 42  1  0
 21 43  1  0
 21 44  1  0
 21 45  1  0
M  END
$$$$
