
     RDKit          3D

 45 48  0  0  0  0  0  0  0  0999 V2000
   23.1556    4.3016    6.1493 C   0  0  0  0  0  0  0  0  0  0  0  0
   23.4454    2.9454    5.6873 C   0  0  2  0  0  0  0  0  0  0  0  0
   22.3850    2.7957    4.6008 O   0  0  0  0  0  0  0  0  0  0  0  0
   23.2079    1.7385    6.4696 C   0  0  0  0  0  0  0  0  0  0  0  0
   24.5397    1.0052    6.3046 C   0  0  0  0  0  0  0  0  0  0  0  0
   25.4942    2.1794    6.0679 C   0  0  1  0  0  0  0  0  0  0  0  0
   26.8502    1.7673    5.6848 C   0  0  2  0  0  0  0  0  0  0  0  0
   27.5856    0.9412    6.6157 C   0  0  0  0  0  0  0  0  0  0  0  0
   28.9470    0.6560    5.9567 C   0  0  0  0  0  0  0  0  0  0  0  0
   29.6345    1.9465    5.7266 C   0  0  0  0  0  0  0  0  0  0  0  0
   30.9342    1.9596    5.5244 C   0  0  0  0  0  0  0  0  0  0  0  0
   31.6241    3.2602    5.3504 C   0  0  0  0  0  0  0  0  0  0  0  0
   32.7502    3.3375    4.8283 O   0  0  0  0  0  0  0  0  0  0  0  0
   30.8663    4.4771    5.8449 C   0  0  0  0  0  0  0  0  0  0  0  0
   29.5328    4.4934    5.1670 C   0  0  0  0  0  0  0  0  0  0  0  0
   28.8605    3.1544    5.4697 C   0  0  0  0  0  0  0  0  0  0  0  0
   27.5560    3.1174    5.3762 C   0  0  0  0  0  0  0  0  0  0  0  0
   26.6665    4.2006    4.8918 C   0  0  0  0  0  0  0  0  0  0  0  0
   25.3888    4.0493    4.6373 C   0  0  0  0  0  0  0  0  0  0  0  0
   24.6975    2.6953    4.8408 C   0  0  2  0  0  0  0  0  0  0  0  0
   24.5274    1.9747    3.6661 C   0  0  0  0  0  0  0  0  0  0  0  0
   23.9175    5.0366    6.3268 H   0  0  0  0  0  0  0  0  0  0  0  0
   22.6300    4.8454    5.2251 H   0  0  0  0  0  0  0  0  0  0  0  0
   22.2702    4.3414    6.8629 H   0  0  0  0  0  0  0  0  0  0  0  0
   21.6215    2.5730    5.1743 H   0  0  0  0  0  0  0  0  0  0  0  0
   23.2715    2.0488    7.5939 H   0  0  0  0  0  0  0  0  0  0  0  0
   22.3224    1.1169    6.3291 H   0  0  0  0  0  0  0  0  0  0  0  0
   24.8114    0.4265    7.2631 H   0  0  0  0  0  0  0  0  0  0  0  0
   24.5400    0.3296    5.4795 H   0  0  0  0  0  0  0  0  0  0  0  0
   25.4137    2.9198    6.8501 H   0  0  0  0  0  0  0  0  0  0  0  0
   26.9503    1.2640    4.6501 H   0  0  0  0  0  0  0  0  0  0  0  0
   27.8069    1.4316    7.6293 H   0  0  0  0  0  0  0  0  0  0  0  0
   27.0325    0.0357    6.8391 H   0  0  0  0  0  0  0  0  0  0  0  0
   28.7190    0.2221    4.9368 H   0  0  0  0  0  0  0  0  0  0  0  0
   29.5222   -0.0046    6.5977 H   0  0  0  0  0  0  0  0  0  0  0  0
   31.4436    1.0318    5.4852 H   0  0  0  0  0  0  0  0  0  0  0  0
   31.4227    5.4131    5.7314 H   0  0  0  0  0  0  0  0  0  0  0  0
   30.7318    4.3123    6.9548 H   0  0  0  0  0  0  0  0  0  0  0  0
   29.6100    4.7003    4.1110 H   0  0  0  0  0  0  0  0  0  0  0  0
   28.9635    5.3385    5.6700 H   0  0  0  0  0  0  0  0  0  0  0  0
   27.1891    5.1286    4.7725 H   0  0  0  0  0  0  0  0  0  0  0  0
   24.8055    4.8765    4.2774 H   0  0  0  0  0  0  0  0  0  0  0  0
   25.3083    2.3191    2.8383 H   0  0  0  0  0  0  0  0  0  0  0  0
   24.6522    0.8616    3.6340 H   0  0  0  0  0  0  0  0  0  0  0  0
   23.5749    2.2253    3.1540 H   0  0  0  0  0  0  0  0  0  0  0  0
  1  2  1  0
  2  3  1  6
  2  4  1  0
  4  5  1  0
  5  6  1  0
  6  7  1  0
  7  8  1  0
  8  9  1  0
  9 10  1  0
 10 11  2  0
 11 12  1  0
 12 13  2  0
 12 14  1  0
 14 15  1  0
 15 16  1  0
 16 17  2  0
 17 18  1  0
 18 19  2  0
 19 20  1  0
 20 21  1  6
 20  2  1  0
 20  6  1  0
 17  7  1  0
 16 10  1  0
  1 22  1  0
  1 23  1  0
  1 24  1  0
  3 25  1  0
  4 26  1  0
  4 27  1  0
  5 28  1  0
  5 29  1  0
  6 30  1  1
  7 31  1  6
  8 32  1  0
  8 33  1  0
  9 34  1  0
  9 35  1  0
 11 36  1  0
 14 37  1  0
 14 38  1  0
 15 39  1  0
 15 40  1  0
 18 41  1  0
 19 42  1  0
 21 43  1  0
 21 44  1  0
 21 45  1  0
M  END
$$$$
