
     RDKit          3D

 53 55  0  0  0  0  0  0  0  0999 V2000
   31.6448    0.4161    3.3395 C   0  0  0  0  0  0  0  0  0  0  0  0
   31.5586    1.9361    3.4022 C   0  0  0  0  0  0  0  0  0  0  0  0
   30.8133    2.4113    4.6467 C   0  0  0  0  0  0  0  0  0  0  0  0
   30.7220    3.9330    4.7134 C   0  0  0  0  0  0  0  0  0  0  0  0
   29.9751    4.4164    5.9631 C   0  0  0  0  0  0  0  0  0  0  0  0
   28.5400    3.9751    5.9464 C   0  0  0  0  0  0  0  0  0  0  0  0
   28.1085    2.9090    6.7216 C   0  0  0  0  0  0  0  0  0  0  0  0
   26.7933    2.4703    6.6642 C   0  0  0  0  0  0  0  0  0  0  0  0
   25.8695    3.0742    5.8074 C   0  0  0  0  0  0  0  0  0  0  0  0
   24.4427    2.5971    5.6764 C   0  0  2  0  0  0  0  0  0  0  0  0
   24.2918    1.1084    5.5067 C   0  0  0  0  0  0  0  0  0  0  0  0
   23.2938    0.5555    4.8324 C   0  0  0  0  0  0  0  0  0  0  0  0
   22.2343    1.3606    4.1281 C   0  0  0  0  0  0  0  0  0  0  0  0
   22.3086    2.8527    4.4534 C   0  0  0  0  0  0  0  0  0  0  0  0
   23.7740    3.2737    4.4756 C   0  0  1  0  0  0  0  0  0  0  0  0
   24.0581    4.7818    4.4699 C   0  0  0  0  0  0  0  0  0  0  0  0
   25.4717    4.9531    4.3162 O   0  0  0  0  0  0  0  0  0  0  0  0
   26.2921    4.1981    5.0935 C   0  0  0  0  0  0  0  0  0  0  0  0
   27.6171    4.6241    5.1485 C   0  0  0  0  0  0  0  0  0  0  0  0
   23.4499    5.4730    3.2476 C   0  0  0  0  0  0  0  0  0  0  0  0
   23.5994    5.4914    5.7477 C   0  0  0  0  0  0  0  0  0  0  0  0
   23.1530   -0.9310    4.6907 C   0  0  0  0  0  0  0  0  0  0  0  0
   26.3820    1.4433    7.4687 O   0  0  0  0  0  0  0  0  0  0  0  0
   30.6484   -0.0204    3.3220 H   0  0  0  0  0  0  0  0  0  0  0  0
   32.1752    0.0975    2.4451 H   0  0  0  0  0  0  0  0  0  0  0  0
   32.1729    0.0275    4.2079 H   0  0  0  0  0  0  0  0  0  0  0  0
   32.5670    2.3573    3.4009 H   0  0  0  0  0  0  0  0  0  0  0  0
   31.0444    2.3070    2.5127 H   0  0  0  0  0  0  0  0  0  0  0  0
   31.3279    2.0403    5.5369 H   0  0  0  0  0  0  0  0  0  0  0  0
   29.8048    1.9921    4.6452 H   0  0  0  0  0  0  0  0  0  0  0  0
   31.7295    4.3562    4.7151 H   0  0  0  0  0  0  0  0  0  0  0  0
   30.2045    4.3015    3.8255 H   0  0  0  0  0  0  0  0  0  0  0  0
   30.4743    4.0272    6.8528 H   0  0  0  0  0  0  0  0  0  0  0  0
   30.0182    5.5071    5.9976 H   0  0  0  0  0  0  0  0  0  0  0  0
   28.8017    2.4099    7.3871 H   0  0  0  0  0  0  0  0  0  0  0  0
   23.9088    2.8701    6.5995 H   0  0  0  0  0  0  0  0  0  0  0  0
   25.0232    0.4871    5.9957 H   0  0  0  0  0  0  0  0  0  0  0  0
   22.3570    1.2160    3.0487 H   0  0  0  0  0  0  0  0  0  0  0  0
   21.2471    0.9694    4.3895 H   0  0  0  0  0  0  0  0  0  0  0  0
   21.8580    3.0388    5.4301 H   0  0  0  0  0  0  0  0  0  0  0  0
   21.7458    3.4149    3.7074 H   0  0  0  0  0  0  0  0  0  0  0  0
   24.2527    2.8789    3.5696 H   0  0  0  0  0  0  0  0  0  0  0  0
   27.8974    5.4847    4.5620 H   0  0  0  0  0  0  0  0  0  0  0  0
   23.6513    4.8985    2.3472 H   0  0  0  0  0  0  0  0  0  0  0  0
   22.3779    5.5939    3.3672 H   0  0  0  0  0  0  0  0  0  0  0  0
   23.9046    6.4540    3.1369 H   0  0  0  0  0  0  0  0  0  0  0  0
   22.5428    5.3101    5.9224 H   0  0  0  0  0  0  0  0  0  0  0  0
   24.1700    5.1453    6.6058 H   0  0  0  0  0  0  0  0  0  0  0  0
   23.7611    6.5620    5.6444 H   0  0  0  0  0  0  0  0  0  0  0  0
   23.1337   -1.2118    3.6377 H   0  0  0  0  0  0  0  0  0  0  0  0
   23.9762   -1.4484    5.1757 H   0  0  0  0  0  0  0  0  0  0  0  0
   22.2180   -1.2673    5.1389 H   0  0  0  0  0  0  0  0  0  0  0  0
   27.1245    1.1575    8.0142 H   0  0  0  0  0  0  0  0  0  0  0  0
  1  2  1  0
  2  3  1  0
  3  4  1  0
  4  5  1  0
  5  6  1  0
  6  7  2  0
  7  8  1  0
  8  9  2  0
  9 10  1  0
 10 11  1  0
 11 12  2  0
 12 13  1  0
 13 14  1  0
 14 15  1  0
 15 16  1  0
 16 17  1  0
 17 18  1  0
 18 19  2  0
 16 20  1  0
 16 21  1  0
 12 22  1  0
  8 23  1  0
 19  6  1  0
 18  9  1  0
 15 10  1  0
  1 24  1  0
  1 25  1  0
  1 26  1  0
  2 27  1  0
  2 28  1  0
  3 29  1  0
  3 30  1  0
  4 31  1  0
  4 32  1  0
  5 33  1  0
  5 34  1  0
  7 35  1  0
 10 36  1  1
 11 37  1  0
 13 38  1  0
 13 39  1  0
 14 40  1  0
 14 41  1  0
 15 42  1  6
 19 43  1  0
 20 44  1  0
 20 45  1  0
 20 46  1  0
 21 47  1  0
 21 48  1  0
 21 49  1  0
 22 50  1  0
 22 51  1  0
 22 52  1  0
 23 53  1  0
M  END
$$$$
