
     RDKit          3D

 59 61  0  0  0  0  0  0  0  0999 V2000
   21.5313    6.9032    5.7376 C   0  0  0  0  0  0  0  0  0  0  0  0
   22.1985    5.6549    5.7368 O   0  0  0  0  0  0  0  0  0  0  0  0
   23.3628    5.4204    6.4196 C   0  0  0  0  0  0  0  0  0  0  0  0
   23.8690    6.3682    7.0859 O   0  0  0  0  0  0  0  0  0  0  0  0
   24.0187    4.0966    6.3848 C   0  0  1  0  0  0  0  0  0  0  0  0
   25.2410    4.1381    7.2028 N   0  0  0  0  0  0  0  0  0  0  0  0
   26.4729    3.8995    6.6186 C   0  0  0  0  0  0  0  0  0  0  0  0
   26.4475    3.6442    5.3524 O   0  0  0  0  0  0  0  0  0  0  0  0
   27.7873    3.8904    7.2118 C   0  0  0  0  0  0  0  0  0  0  0  0
   28.8757    3.4745    6.5011 N   0  0  0  0  0  0  0  0  0  0  0  0
   29.9535    3.5670    7.2519 N   0  0  0  0  0  0  0  0  0  0  0  0
   31.2721    3.2013    6.8064 C   0  0  0  0  0  0  0  0  0  0  0  0
   31.5483    1.7422    7.1011 C   0  0  0  0  0  0  0  0  0  0  0  0
   33.0461    1.6181    6.5074 C   0  0  0  0  0  0  0  0  0  0  0  0
   33.8327    0.2550    6.2154 C   0  0  0  0  0  0  0  0  0  0  0  0
   33.4439   -0.2322    7.5018 C   0  0  0  0  0  0  0  0  0  0  0  0
   31.9201   -0.3595    7.0012 C   0  0  0  0  0  0  0  0  0  0  0  0
   31.1072    0.7824    6.1879 C   0  0  0  0  0  0  0  0  0  0  0  0
   29.6630    4.0370    8.4750 C   0  0  0  0  0  0  0  0  0  0  0  0
   30.4138    4.3143    9.5964 C   0  0  0  0  0  0  0  0  0  0  0  0
   29.8079    4.8109   10.7370 C   0  0  0  0  0  0  0  0  0  0  0  0
   28.4418    5.0013   10.6693 C   0  0  0  0  0  0  0  0  0  0  0  0
   27.7016    4.7274    9.5628 C   0  0  0  0  0  0  0  0  0  0  0  0
   28.2796    4.2386    8.4342 C   0  0  0  0  0  0  0  0  0  0  0  0
   23.0989    2.9960    6.8705 C   0  0  0  0  0  0  0  0  0  0  0  0
   22.7181    3.3357    8.2977 C   0  0  0  0  0  0  0  0  0  0  0  0
   23.7237    1.6437    6.7675 C   0  0  0  0  0  0  0  0  0  0  0  0
   21.8264    2.9739    6.0538 C   0  0  0  0  0  0  0  0  0  0  0  0
   22.2059    7.6606    6.1880 H   0  0  0  0  0  0  0  0  0  0  0  0
   20.6291    6.7999    6.3698 H   0  0  0  0  0  0  0  0  0  0  0  0
   21.2424    7.1379    4.6850 H   0  0  0  0  0  0  0  0  0  0  0  0
   24.2614    3.8639    5.3352 H   0  0  0  0  0  0  0  0  0  0  0  0
   25.1327    4.3337    8.1787 H   0  0  0  0  0  0  0  0  0  0  0  0
   31.4502    3.4119    5.7403 H   0  0  0  0  0  0  0  0  0  0  0  0
   32.0283    3.7948    7.3682 H   0  0  0  0  0  0  0  0  0  0  0  0
   31.6820    1.5567    8.1546 H   0  0  0  0  0  0  0  0  0  0  0  0
   33.6683    2.2467    7.1398 H   0  0  0  0  0  0  0  0  0  0  0  0
   32.9572    2.0637    5.5072 H   0  0  0  0  0  0  0  0  0  0  0  0
   34.8590    0.6284    6.1628 H   0  0  0  0  0  0  0  0  0  0  0  0
   33.5067   -0.1629    5.2822 H   0  0  0  0  0  0  0  0  0  0  0  0
   33.5022    0.3869    8.3598 H   0  0  0  0  0  0  0  0  0  0  0  0
   33.6901   -1.2776    7.6861 H   0  0  0  0  0  0  0  0  0  0  0  0
   31.3635   -0.4321    7.9350 H   0  0  0  0  0  0  0  0  0  0  0  0
   31.8470   -1.2796    6.4370 H   0  0  0  0  0  0  0  0  0  0  0  0
   31.4793    0.6618    5.1834 H   0  0  0  0  0  0  0  0  0  0  0  0
   30.0867    0.3817    6.2231 H   0  0  0  0  0  0  0  0  0  0  0  0
   31.4674    4.1450    9.5845 H   0  0  0  0  0  0  0  0  0  0  0  0
   30.3992    5.0290   11.6196 H   0  0  0  0  0  0  0  0  0  0  0  0
   27.9763    5.3933   11.5742 H   0  0  0  0  0  0  0  0  0  0  0  0
   26.6575    4.9049    9.5771 H   0  0  0  0  0  0  0  0  0  0  0  0
   21.7011    2.9392    8.4717 H   0  0  0  0  0  0  0  0  0  0  0  0
   22.6507    4.4447    8.3549 H   0  0  0  0  0  0  0  0  0  0  0  0
   23.4381    2.9139    9.0082 H   0  0  0  0  0  0  0  0  0  0  0  0
   23.9912    1.4499    5.7198 H   0  0  0  0  0  0  0  0  0  0  0  0
   22.9523    0.9050    7.0663 H   0  0  0  0  0  0  0  0  0  0  0  0
   24.6029    1.5315    7.4501 H   0  0  0  0  0  0  0  0  0  0  0  0
   21.4043    1.9563    6.0392 H   0  0  0  0  0  0  0  0  0  0  0  0
   21.1300    3.7069    6.5097 H   0  0  0  0  0  0  0  0  0  0  0  0
   22.0073    3.3601    5.0129 H   0  0  0  0  0  0  0  0  0  0  0  0
  1  2  1  0
  2  3  1  0
  3  4  2  0
  3  5  1  0
  5  6  1  0
  6  7  1  0
  7  8  2  0
  7  9  1  0
  9 10  2  0
 10 11  1  0
 11 12  1  0
 12 13  1  0
 13 14  1  0
 14 15  1  0
 15 16  1  0
 16 17  1  0
 17 18  1  0
 11 19  1  0
 19 20  2  0
 20 21  1  0
 21 22  2  0
 22 23  1  0
 23 24  2  0
  5 25  1  0
 25 26  1  0
 25 27  1  0
 25 28  1  0
 24  9  1  0
 18 13  1  0
 24 19  1  0
  1 29  1  0
  1 30  1  0
  1 31  1  0
  5 32  1  6
  6 33  1  0
 12 34  1  0
 12 35  1  0
 13 36  1  0
 14 37  1  0
 14 38  1  0
 15 39  1  0
 15 40  1  0
 16 41  1  0
 16 42  1  0
 17 43  1  0
 17 44  1  0
 18 45  1  0
 18 46  1  0
 20 47  1  0
 21 48  1  0
 22 49  1  0
 23 50  1  0
 26 51  1  0
 26 52  1  0
 26 53  1  0
 27 54  1  0
 27 55  1  0
 27 56  1  0
 28 57  1  0
 28 58  1  0
 28 59  1  0
M  END
$$$$
