
     RDKit          3D

 59 61  0  0  0  0  0  0  0  0999 V2000
   22.1115    6.6634    5.2840 C   0  0  0  0  0  0  0  0  0  0  0  0
   22.4531    5.3488    5.7379 O   0  0  0  0  0  0  0  0  0  0  0  0
   23.5561    5.1531    6.5682 C   0  0  0  0  0  0  0  0  0  0  0  0
   24.2048    6.1960    6.8748 O   0  0  0  0  0  0  0  0  0  0  0  0
   23.9451    3.8076    7.0611 C   0  0  1  0  0  0  0  0  0  0  0  0
   25.1341    3.9854    7.8952 N   0  0  0  0  0  0  0  0  0  0  0  0
   26.3388    3.3412    7.5911 C   0  0  0  0  0  0  0  0  0  0  0  0
   26.3031    2.5921    6.5439 O   0  0  0  0  0  0  0  0  0  0  0  0
   27.5919    3.3958    8.2768 C   0  0  0  0  0  0  0  0  0  0  0  0
   28.6048    2.5302    7.9830 N   0  0  0  0  0  0  0  0  0  0  0  0
   29.6567    2.7870    8.7353 N   0  0  0  0  0  0  0  0  0  0  0  0
   30.9629    2.0623    8.7108 C   0  0  0  0  0  0  0  0  0  0  0  0
   31.8840    2.6322    7.7818 C   0  0  0  0  0  0  0  0  0  0  0  0
   33.3066    1.9274    7.7709 C   0  0  0  0  0  0  0  0  0  0  0  0
   33.7401    0.6169    6.9198 C   0  0  0  0  0  0  0  0  0  0  0  0
   32.5520   -0.0521    7.3266 C   0  0  0  0  0  0  0  0  0  0  0  0
   31.6851    0.9253    6.4252 C   0  0  0  0  0  0  0  0  0  0  0  0
   31.8536    2.5348    6.3672 C   0  0  0  0  0  0  0  0  0  0  0  0
   29.4187    3.8182    9.5609 C   0  0  0  0  0  0  0  0  0  0  0  0
   30.1776    4.4507   10.5028 C   0  0  0  0  0  0  0  0  0  0  0  0
   29.6588    5.5212   11.2140 C   0  0  0  0  0  0  0  0  0  0  0  0
   28.3652    5.8876   10.9104 C   0  0  0  0  0  0  0  0  0  0  0  0
   27.6025    5.2494    9.9618 C   0  0  0  0  0  0  0  0  0  0  0  0
   28.1057    4.1954    9.2594 C   0  0  0  0  0  0  0  0  0  0  0  0
   22.8269    3.1568    7.8438 C   0  0  0  0  0  0  0  0  0  0  0  0
   23.3136    1.7922    8.3053 C   0  0  0  0  0  0  0  0  0  0  0  0
   22.5228    4.0230    9.0413 C   0  0  0  0  0  0  0  0  0  0  0  0
   21.6511    2.9397    6.9483 C   0  0  0  0  0  0  0  0  0  0  0  0
   21.0159    6.7988    5.2749 H   0  0  0  0  0  0  0  0  0  0  0  0
   22.6138    6.8583    4.3349 H   0  0  0  0  0  0  0  0  0  0  0  0
   22.4971    7.4300    6.0075 H   0  0  0  0  0  0  0  0  0  0  0  0
   24.1904    3.1314    6.2399 H   0  0  0  0  0  0  0  0  0  0  0  0
   25.0509    4.5786    8.7055 H   0  0  0  0  0  0  0  0  0  0  0  0
   30.6336    1.0344    8.4636 H   0  0  0  0  0  0  0  0  0  0  0  0
   31.2874    2.0093    9.7828 H   0  0  0  0  0  0  0  0  0  0  0  0
   32.1343    3.7182    8.0614 H   0  0  0  0  0  0  0  0  0  0  0  0
   33.5487    1.7212    8.8168 H   0  0  0  0  0  0  0  0  0  0  0  0
   33.9826    2.6902    7.3656 H   0  0  0  0  0  0  0  0  0  0  0  0
   33.9342    0.9484    5.9357 H   0  0  0  0  0  0  0  0  0  0  0  0
   34.6464    0.3373    7.4639 H   0  0  0  0  0  0  0  0  0  0  0  0
   32.4731   -1.0507    6.8315 H   0  0  0  0  0  0  0  0  0  0  0  0
   32.2765   -0.1300    8.3198 H   0  0  0  0  0  0  0  0  0  0  0  0
   30.6400    0.6901    6.5450 H   0  0  0  0  0  0  0  0  0  0  0  0
   31.9718    0.6399    5.3954 H   0  0  0  0  0  0  0  0  0  0  0  0
   32.7527    2.6752    5.8045 H   0  0  0  0  0  0  0  0  0  0  0  0
   30.9759    2.8291    5.7991 H   0  0  0  0  0  0  0  0  0  0  0  0
   31.1971    4.1587   10.7387 H   0  0  0  0  0  0  0  0  0  0  0  0
   30.2195    6.0540   11.9692 H   0  0  0  0  0  0  0  0  0  0  0  0
   27.9236    6.7271   11.4504 H   0  0  0  0  0  0  0  0  0  0  0  0
   26.6233    5.5843    9.7676 H   0  0  0  0  0  0  0  0  0  0  0  0
   24.2157    1.8727    8.9449 H   0  0  0  0  0  0  0  0  0  0  0  0
   23.5863    1.1997    7.4035 H   0  0  0  0  0  0  0  0  0  0  0  0
   22.5040    1.2417    8.8256 H   0  0  0  0  0  0  0  0  0  0  0  0
   23.3582    3.8888    9.7441 H   0  0  0  0  0  0  0  0  0  0  0  0
   21.5466    3.7651    9.5074 H   0  0  0  0  0  0  0  0  0  0  0  0
   22.5041    5.0768    8.7411 H   0  0  0  0  0  0  0  0  0  0  0  0
   21.9838    3.0072    5.8961 H   0  0  0  0  0  0  0  0  0  0  0  0
   20.8423    3.6916    7.0728 H   0  0  0  0  0  0  0  0  0  0  0  0
   21.2000    1.9173    7.0674 H   0  0  0  0  0  0  0  0  0  0  0  0
  1  2  1  0
  2  3  1  0
  3  4  2  0
  3  5  1  0
  5  6  1  0
  6  7  1  0
  7  8  2  0
  7  9  1  0
  9 10  2  0
 10 11  1  0
 11 12  1  0
 12 13  1  0
 13 14  1  0
 14 15  1  0
 15 16  1  0
 16 17  1  0
 17 18  1  0
 11 19  1  0
 19 20  2  0
 20 21  1  0
 21 22  2  0
 22 23  1  0
 23 24  2  0
  5 25  1  0
 25 26  1  0
 25 27  1  0
 25 28  1  0
 24  9  1  0
 18 13  1  0
 24 19  1  0
  1 29  1  0
  1 30  1  0
  1 31  1  0
  5 32  1  6
  6 33  1  0
 12 34  1  0
 12 35  1  0
 13 36  1  0
 14 37  1  0
 14 38  1  0
 15 39  1  0
 15 40  1  0
 16 41  1  0
 16 42  1  0
 17 43  1  0
 17 44  1  0
 18 45  1  0
 18 46  1  0
 20 47  1  0
 21 48  1  0
 22 49  1  0
 23 50  1  0
 26 51  1  0
 26 52  1  0
 26 53  1  0
 27 54  1  0
 27 55  1  0
 27 56  1  0
 28 57  1  0
 28 58  1  0
 28 59  1  0
M  END
$$$$
