
     RDKit          3D

 59 61  0  0  0  0  0  0  0  0999 V2000
   22.7396    0.2867    5.9435 C   0  0  0  0  0  0  0  0  0  0  0  0
   23.5685    1.4044    6.2219 O   0  0  0  0  0  0  0  0  0  0  0  0
   23.0687    2.7170    6.2538 C   0  0  0  0  0  0  0  0  0  0  0  0
   21.8339    2.9233    6.0272 O   0  0  0  0  0  0  0  0  0  0  0  0
   23.9991    3.8261    6.5516 C   0  0  1  0  0  0  0  0  0  0  0  0
   25.3634    3.3930    6.7824 N   0  0  0  0  0  0  0  0  0  0  0  0
   25.9674    3.5736    8.0503 C   0  0  0  0  0  0  0  0  0  0  0  0
   25.2966    4.1228    8.9890 O   0  0  0  0  0  0  0  0  0  0  0  0
   27.3396    3.1372    8.2810 C   0  0  0  0  0  0  0  0  0  0  0  0
   28.2040    2.5481    7.4420 N   0  0  0  0  0  0  0  0  0  0  0  0
   29.3555    2.3167    8.0591 N   0  0  0  0  0  0  0  0  0  0  0  0
   30.5510    1.6647    7.4107 C   0  0  0  0  0  0  0  0  0  0  0  0
   31.4040    2.6226    6.8107 C   0  0  0  0  0  0  0  0  0  0  0  0
   30.9972    3.4891    5.7558 C   0  0  0  0  0  0  0  0  0  0  0  0
   30.6931    2.1929    4.8176 C   0  0  0  0  0  0  0  0  0  0  0  0
   31.6413    0.9352    4.6182 C   0  0  0  0  0  0  0  0  0  0  0  0
   32.7522    1.7813    4.4412 C   0  0  0  0  0  0  0  0  0  0  0  0
   32.6983    2.1977    6.0271 C   0  0  0  0  0  0  0  0  0  0  0  0
   29.3064    2.7418    9.3340 C   0  0  0  0  0  0  0  0  0  0  0  0
   30.2275    2.7267   10.3603 C   0  0  0  0  0  0  0  0  0  0  0  0
   29.8856    3.2469   11.5922 C   0  0  0  0  0  0  0  0  0  0  0  0
   28.6196    3.7747   11.7707 C   0  0  0  0  0  0  0  0  0  0  0  0
   27.6975    3.7824   10.7200 C   0  0  0  0  0  0  0  0  0  0  0  0
   28.0277    3.2642    9.4810 C   0  0  0  0  0  0  0  0  0  0  0  0
   23.9361    4.9528    5.5440 C   0  0  0  0  0  0  0  0  0  0  0  0
   24.9223    6.0712    5.9061 C   0  0  0  0  0  0  0  0  0  0  0  0
   22.5759    5.6175    5.5600 C   0  0  0  0  0  0  0  0  0  0  0  0
   24.2337    4.5256    4.1441 C   0  0  0  0  0  0  0  0  0  0  0  0
   22.6890    0.0646    4.8610 H   0  0  0  0  0  0  0  0  0  0  0  0
   21.7165    0.5245    6.3542 H   0  0  0  0  0  0  0  0  0  0  0  0
   23.1554   -0.5706    6.5424 H   0  0  0  0  0  0  0  0  0  0  0  0
   23.6489    4.2665    7.5230 H   0  0  0  0  0  0  0  0  0  0  0  0
   25.8831    2.9433    5.9789 H   0  0  0  0  0  0  0  0  0  0  0  0
   30.1354    0.8390    6.7897 H   0  0  0  0  0  0  0  0  0  0  0  0
   31.0507    1.1211    8.2627 H   0  0  0  0  0  0  0  0  0  0  0  0
   31.8904    3.2565    7.6293 H   0  0  0  0  0  0  0  0  0  0  0  0
   31.6845    4.1277    5.2603 H   0  0  0  0  0  0  0  0  0  0  0  0
   29.9994    3.8991    5.8406 H   0  0  0  0  0  0  0  0  0  0  0  0
   30.6423    2.6547    3.8248 H   0  0  0  0  0  0  0  0  0  0  0  0
   29.6974    1.8309    5.0909 H   0  0  0  0  0  0  0  0  0  0  0  0
   31.5751    0.2000    5.3658 H   0  0  0  0  0  0  0  0  0  0  0  0
   31.2486    0.5621    3.6288 H   0  0  0  0  0  0  0  0  0  0  0  0
   33.7713    1.3814    4.3514 H   0  0  0  0  0  0  0  0  0  0  0  0
   32.6551    2.6996    3.8959 H   0  0  0  0  0  0  0  0  0  0  0  0
   33.4331    3.0057    6.0493 H   0  0  0  0  0  0  0  0  0  0  0  0
   33.0684    1.3011    6.5021 H   0  0  0  0  0  0  0  0  0  0  0  0
   31.2185    2.3035   10.1891 H   0  0  0  0  0  0  0  0  0  0  0  0
   30.6159    3.2363   12.4104 H   0  0  0  0  0  0  0  0  0  0  0  0
   28.3813    4.1738   12.7442 H   0  0  0  0  0  0  0  0  0  0  0  0
   26.7016    4.2108   10.9020 H   0  0  0  0  0  0  0  0  0  0  0  0
   25.9453    5.7968    5.5827 H   0  0  0  0  0  0  0  0  0  0  0  0
   24.6258    6.9498    5.2643 H   0  0  0  0  0  0  0  0  0  0  0  0
   24.8193    6.3323    6.9641 H   0  0  0  0  0  0  0  0  0  0  0  0
   22.6470    6.6592    5.1745 H   0  0  0  0  0  0  0  0  0  0  0  0
   22.2619    5.6919    6.6319 H   0  0  0  0  0  0  0  0  0  0  0  0
   21.8003    5.0300    5.0153 H   0  0  0  0  0  0  0  0  0  0  0  0
   25.1768    3.9395    4.0603 H   0  0  0  0  0  0  0  0  0  0  0  0
   23.3731    4.0550    3.6264 H   0  0  0  0  0  0  0  0  0  0  0  0
   24.4490    5.4627    3.5603 H   0  0  0  0  0  0  0  0  0  0  0  0
  1  2  1  0
  2  3  1  0
  3  4  2  0
  3  5  1  0
  5  6  1  0
  6  7  1  0
  7  8  2  0
  7  9  1  0
  9 10  2  0
 10 11  1  0
 11 12  1  0
 12 13  1  0
 13 14  1  0
 14 15  1  0
 15 16  1  0
 16 17  1  0
 17 18  1  0
 11 19  1  0
 19 20  2  0
 20 21  1  0
 21 22  2  0
 22 23  1  0
 23 24  2  0
  5 25  1  0
 25 26  1  0
 25 27  1  0
 25 28  1  0
 24  9  1  0
 18 13  1  0
 24 19  1  0
  1 29  1  0
  1 30  1  0
  1 31  1  0
  5 32  1  1
  6 33  1  0
 12 34  1  0
 12 35  1  0
 13 36  1  0
 14 37  1  0
 14 38  1  0
 15 39  1  0
 15 40  1  0
 16 41  1  0
 16 42  1  0
 17 43  1  0
 17 44  1  0
 18 45  1  0
 18 46  1  0
 20 47  1  0
 21 48  1  0
 22 49  1  0
 23 50  1  0
 26 51  1  0
 26 52  1  0
 26 53  1  0
 27 54  1  0
 27 55  1  0
 27 56  1  0
 28 57  1  0
 28 58  1  0
 28 59  1  0
M  END
$$$$
