
     RDKit          3D

 59 61  0  0  0  0  0  0  0  0999 V2000
   23.7275    6.0208    5.2744 C   0  0  0  0  0  0  0  0  0  0  0  0
   24.0362    4.9629    6.1482 O   0  0  0  0  0  0  0  0  0  0  0  0
   23.1848    3.8752    6.3837 C   0  0  0  0  0  0  0  0  0  0  0  0
   22.1073    3.8737    5.7638 O   0  0  0  0  0  0  0  0  0  0  0  0
   23.5890    2.7815    7.3485 C   0  0  1  0  0  0  0  0  0  0  0  0
   24.9170    3.1539    7.8110 N   0  0  0  0  0  0  0  0  0  0  0  0
   26.0593    2.6517    7.1619 C   0  0  0  0  0  0  0  0  0  0  0  0
   25.8345    1.8893    6.1584 O   0  0  0  0  0  0  0  0  0  0  0  0
   27.4298    2.8924    7.4841 C   0  0  0  0  0  0  0  0  0  0  0  0
   28.4533    2.6342    6.6244 N   0  0  0  0  0  0  0  0  0  0  0  0
   29.6215    2.8911    7.1533 N   0  0  0  0  0  0  0  0  0  0  0  0
   30.9452    2.6376    6.5740 C   0  0  0  0  0  0  0  0  0  0  0  0
   31.3009    1.2681    6.4539 C   0  0  0  0  0  0  0  0  0  0  0  0
   31.3272    0.3039    7.6763 C   0  0  0  0  0  0  0  0  0  0  0  0
   32.1741    0.8042    9.0331 C   0  0  0  0  0  0  0  0  0  0  0  0
   32.9995    1.2296    8.1726 C   0  0  0  0  0  0  0  0  0  0  0  0
   33.9418    1.7108    7.1892 C   0  0  0  0  0  0  0  0  0  0  0  0
   32.8971    1.0899    6.1221 C   0  0  0  0  0  0  0  0  0  0  0  0
   29.3910    3.3297    8.3790 C   0  0  0  0  0  0  0  0  0  0  0  0
   30.2522    3.7580    9.3562 C   0  0  0  0  0  0  0  0  0  0  0  0
   29.8329    4.2067   10.5851 C   0  0  0  0  0  0  0  0  0  0  0  0
   28.4653    4.2097   10.8056 C   0  0  0  0  0  0  0  0  0  0  0  0
   27.5647    3.7810    9.8323 C   0  0  0  0  0  0  0  0  0  0  0  0
   28.0577    3.3532    8.6375 C   0  0  0  0  0  0  0  0  0  0  0  0
   22.6131    2.6068    8.4454 C   0  0  0  0  0  0  0  0  0  0  0  0
   23.0083    1.5171    9.4548 C   0  0  0  0  0  0  0  0  0  0  0  0
   21.2664    2.1177    7.8868 C   0  0  0  0  0  0  0  0  0  0  0  0
   22.3768    3.8747    9.2333 C   0  0  0  0  0  0  0  0  0  0  0  0
   22.7575    5.8458    4.7539 H   0  0  0  0  0  0  0  0  0  0  0  0
   24.5276    6.1934    4.5203 H   0  0  0  0  0  0  0  0  0  0  0  0
   23.6511    6.9694    5.8822 H   0  0  0  0  0  0  0  0  0  0  0  0
   23.6461    1.8844    6.6755 H   0  0  0  0  0  0  0  0  0  0  0  0
   24.9707    3.8037    8.5996 H   0  0  0  0  0  0  0  0  0  0  0  0
   31.6981    3.2827    7.1529 H   0  0  0  0  0  0  0  0  0  0  0  0
   30.9436    3.1167    5.5471 H   0  0  0  0  0  0  0  0  0  0  0  0
   30.8823    0.6934    5.6604 H   0  0  0  0  0  0  0  0  0  0  0  0
   30.3498    0.1248    8.0566 H   0  0  0  0  0  0  0  0  0  0  0  0
   31.8478   -0.5884    7.3906 H   0  0  0  0  0  0  0  0  0  0  0  0
   31.3807    1.3650    9.5201 H   0  0  0  0  0  0  0  0  0  0  0  0
   32.1493   -0.2050    9.5442 H   0  0  0  0  0  0  0  0  0  0  0  0
   33.7121    0.0642    8.1725 H   0  0  0  0  0  0  0  0  0  0  0  0
   33.9689    1.5309    9.1414 H   0  0  0  0  0  0  0  0  0  0  0  0
   34.8457    1.2735    6.9235 H   0  0  0  0  0  0  0  0  0  0  0  0
   33.8479    2.7654    6.9412 H   0  0  0  0  0  0  0  0  0  0  0  0
   33.0330    0.0448    6.0772 H   0  0  0  0  0  0  0  0  0  0  0  0
   32.9805    1.6143    5.1895 H   0  0  0  0  0  0  0  0  0  0  0  0
   31.3119    3.7595    9.1473 H   0  0  0  0  0  0  0  0  0  0  0  0
   30.4798    4.5416   11.3632 H   0  0  0  0  0  0  0  0  0  0  0  0
   28.1164    4.5721   11.7831 H   0  0  0  0  0  0  0  0  0  0  0  0
   26.5312    3.7898   10.0595 H   0  0  0  0  0  0  0  0  0  0  0  0
   24.0658    1.6563    9.6906 H   0  0  0  0  0  0  0  0  0  0  0  0
   22.3715    1.6313   10.3592 H   0  0  0  0  0  0  0  0  0  0  0  0
   22.7870    0.5438    9.0129 H   0  0  0  0  0  0  0  0  0  0  0  0
   21.5013    1.2105    7.2804 H   0  0  0  0  0  0  0  0  0  0  0  0
   20.7631    2.8680    7.2774 H   0  0  0  0  0  0  0  0  0  0  0  0
   20.6421    1.7706    8.7576 H   0  0  0  0  0  0  0  0  0  0  0  0
   21.4601    3.7775    9.8720 H   0  0  0  0  0  0  0  0  0  0  0  0
   23.2123    4.0726    9.9587 H   0  0  0  0  0  0  0  0  0  0  0  0
   22.2836    4.7810    8.6319 H   0  0  0  0  0  0  0  0  0  0  0  0
  1  2  1  0
  2  3  1  0
  3  4  2  0
  3  5  1  0
  5  6  1  0
  6  7  1  0
  7  8  2  0
  7  9  1  0
  9 10  2  0
 10 11  1  0
 11 12  1  0
 12 13  1  0
 13 14  1  0
 14 15  1  0
 15 16  1  0
 16 17  1  0
 17 18  1  0
 11 19  1  0
 19 20  2  0
 20 21  1  0
 21 22  2  0
 22 23  1  0
 23 24  2  0
  5 25  1  0
 25 26  1  0
 25 27  1  0
 25 28  1  0
 24  9  1  0
 18 13  1  0
 24 19  1  0
  1 29  1  0
  1 30  1  0
  1 31  1  0
  5 32  1  6
  6 33  1  0
 12 34  1  0
 12 35  1  0
 13 36  1  0
 14 37  1  0
 14 38  1  0
 15 39  1  0
 15 40  1  0
 16 41  1  0
 16 42  1  0
 17 43  1  0
 17 44  1  0
 18 45  1  0
 18 46  1  0
 20 47  1  0
 21 48  1  0
 22 49  1  0
 23 50  1  0
 26 51  1  0
 26 52  1  0
 26 53  1  0
 27 54  1  0
 27 55  1  0
 27 56  1  0
 28 57  1  0
 28 58  1  0
 28 59  1  0
M  END
$$$$
