
     RDKit          3D

 59 61  0  0  0  0  0  0  0  0999 V2000
   22.6758    5.7032    4.5922 C   0  0  0  0  0  0  0  0  0  0  0  0
   22.9178    4.7309    5.6025 O   0  0  0  0  0  0  0  0  0  0  0  0
   24.0200    4.7773    6.4397 C   0  0  0  0  0  0  0  0  0  0  0  0
   24.8796    5.7169    6.3322 O   0  0  0  0  0  0  0  0  0  0  0  0
   24.2255    3.7434    7.4734 C   0  0  1  0  0  0  0  0  0  0  0  0
   25.4628    4.0011    8.2298 N   0  0  0  0  0  0  0  0  0  0  0  0
   26.5414    3.1349    8.2046 C   0  0  0  0  0  0  0  0  0  0  0  0
   26.3946    2.0856    7.4642 O   0  0  0  0  0  0  0  0  0  0  0  0
   27.8092    3.2280    8.8793 C   0  0  0  0  0  0  0  0  0  0  0  0
   28.8496    2.4045    8.5577 N   0  0  0  0  0  0  0  0  0  0  0  0
   29.8967    2.6716    9.3216 N   0  0  0  0  0  0  0  0  0  0  0  0
   31.1861    1.9551    9.2238 C   0  0  0  0  0  0  0  0  0  0  0  0
   32.0705    2.6481    8.2552 C   0  0  0  0  0  0  0  0  0  0  0  0
   33.3896    1.9669    8.1315 C   0  0  0  0  0  0  0  0  0  0  0  0
   33.2420    0.6122    7.4938 C   0  0  0  0  0  0  0  0  0  0  0  0
   32.6573    0.7815    6.1210 C   0  0  0  0  0  0  0  0  0  0  0  0
   31.3137    1.4405    6.2106 C   0  0  0  0  0  0  0  0  0  0  0  0
   31.4927    2.7991    6.8638 C   0  0  0  0  0  0  0  0  0  0  0  0
   29.6208    3.6642   10.1762 C   0  0  0  0  0  0  0  0  0  0  0  0
   30.3400    4.3051   11.1648 C   0  0  0  0  0  0  0  0  0  0  0  0
   29.7494    5.3136   11.8970 C   0  0  0  0  0  0  0  0  0  0  0  0
   28.4617    5.6487   11.6189 C   0  0  0  0  0  0  0  0  0  0  0  0
   27.7516    5.0085   10.6351 C   0  0  0  0  0  0  0  0  0  0  0  0
   28.2950    4.0087    9.8873 C   0  0  0  0  0  0  0  0  0  0  0  0
   23.0697    3.5591    8.4019 C   0  0  0  0  0  0  0  0  0  0  0  0
   23.4512    2.4610    9.4018 C   0  0  0  0  0  0  0  0  0  0  0  0
   21.9191    2.9659    7.5968 C   0  0  0  0  0  0  0  0  0  0  0  0
   22.6819    4.7642    9.1828 C   0  0  0  0  0  0  0  0  0  0  0  0
   23.3378    6.5855    4.6707 H   0  0  0  0  0  0  0  0  0  0  0  0
   22.7999    5.1807    3.6155 H   0  0  0  0  0  0  0  0  0  0  0  0
   21.6170    6.0695    4.6320 H   0  0  0  0  0  0  0  0  0  0  0  0
   24.3643    2.7755    6.9404 H   0  0  0  0  0  0  0  0  0  0  0  0
   25.4846    4.8701    8.7667 H   0  0  0  0  0  0  0  0  0  0  0  0
   30.9659    0.9341    8.8599 H   0  0  0  0  0  0  0  0  0  0  0  0
   31.5948    1.9616   10.2458 H   0  0  0  0  0  0  0  0  0  0  0  0
   32.2872    3.7171    8.5711 H   0  0  0  0  0  0  0  0  0  0  0  0
   34.1254    2.6006    7.5556 H   0  0  0  0  0  0  0  0  0  0  0  0
   33.8873    1.7878    9.1101 H   0  0  0  0  0  0  0  0  0  0  0  0
   32.5121    0.0209    8.0778 H   0  0  0  0  0  0  0  0  0  0  0  0
   34.2324    0.0788    7.4505 H   0  0  0  0  0  0  0  0  0  0  0  0
   33.3470    1.4824    5.5734 H   0  0  0  0  0  0  0  0  0  0  0  0
   32.6147   -0.2047    5.6044 H   0  0  0  0  0  0  0  0  0  0  0  0
   31.0137    1.6697    5.1541 H   0  0  0  0  0  0  0  0  0  0  0  0
   30.5547    0.8119    6.6756 H   0  0  0  0  0  0  0  0  0  0  0  0
   32.2593    3.3390    6.2702 H   0  0  0  0  0  0  0  0  0  0  0  0
   30.5708    3.4044    6.8326 H   0  0  0  0  0  0  0  0  0  0  0  0
   31.3734    4.0139   11.3662 H   0  0  0  0  0  0  0  0  0  0  0  0
   30.2921    5.8427   12.6884 H   0  0  0  0  0  0  0  0  0  0  0  0
   27.9896    6.4258   12.1750 H   0  0  0  0  0  0  0  0  0  0  0  0
   26.7453    5.2959   10.4611 H   0  0  0  0  0  0  0  0  0  0  0  0
   22.7198    2.4552   10.2215 H   0  0  0  0  0  0  0  0  0  0  0  0
   24.4618    2.6052    9.8116 H   0  0  0  0  0  0  0  0  0  0  0  0
   23.4483    1.5110    8.8227 H   0  0  0  0  0  0  0  0  0  0  0  0
   21.2552    2.3523    8.2419 H   0  0  0  0  0  0  0  0  0  0  0  0
   22.3683    2.2483    6.8790 H   0  0  0  0  0  0  0  0  0  0  0  0
   21.3652    3.7156    7.0104 H   0  0  0  0  0  0  0  0  0  0  0  0
   21.5890    4.6558    9.4266 H   0  0  0  0  0  0  0  0  0  0  0  0
   22.7774    5.7286    8.6453 H   0  0  0  0  0  0  0  0  0  0  0  0
   23.2664    4.8422   10.1350 H   0  0  0  0  0  0  0  0  0  0  0  0
  1  2  1  0
  2  3  1  0
  3  4  2  0
  3  5  1  0
  5  6  1  0
  6  7  1  0
  7  8  2  0
  7  9  1  0
  9 10  2  0
 10 11  1  0
 11 12  1  0
 12 13  1  0
 13 14  1  0
 14 15  1  0
 15 16  1  0
 16 17  1  0
 17 18  1  0
 11 19  1  0
 19 20  2  0
 20 21  1  0
 21 22  2  0
 22 23  1  0
 23 24  2  0
  5 25  1  0
 25 26  1  0
 25 27  1  0
 25 28  1  0
 24  9  1  0
 18 13  1  0
 24 19  1  0
  1 29  1  0
  1 30  1  0
  1 31  1  0
  5 32  1  6
  6 33  1  0
 12 34  1  0
 12 35  1  0
 13 36  1  0
 14 37  1  0
 14 38  1  0
 15 39  1  0
 15 40  1  0
 16 41  1  0
 16 42  1  0
 17 43  1  0
 17 44  1  0
 18 45  1  0
 18 46  1  0
 20 47  1  0
 21 48  1  0
 22 49  1  0
 23 50  1  0
 26 51  1  0
 26 52  1  0
 26 53  1  0
 27 54  1  0
 27 55  1  0
 27 56  1  0
 28 57  1  0
 28 58  1  0
 28 59  1  0
M  END
$$$$
