
     RDKit          3D

 45 48  0  0  0  0  0  0  0  0999 V2000
   22.9370    3.1401    4.2174 C   0  0  0  0  0  0  0  0  0  0  0  0
   23.5563    1.8817    3.9154 C   0  0  2  0  0  0  0  0  0  0  0  0
   22.7548    1.3413    2.7747 O   0  0  0  0  0  0  0  0  0  0  0  0
   23.3531    0.7005    4.9020 C   0  0  0  0  0  0  0  0  0  0  0  0
   24.6934   -0.0596    4.7051 C   0  0  0  0  0  0  0  0  0  0  0  0
   25.6318    1.1370    4.5274 C   0  0  1  0  0  0  0  0  0  0  0  0
   26.9887    0.7052    4.0146 C   0  0  2  0  0  0  0  0  0  0  0  0
   27.7476   -0.2496    4.8174 C   0  0  0  0  0  0  0  0  0  0  0  0
   29.0671   -0.5334    4.0614 C   0  0  0  0  0  0  0  0  0  0  0  0
   29.7450    0.7670    3.8799 C   0  0  0  0  0  0  0  0  0  0  0  0
   31.0597    0.8702    4.1367 C   0  0  0  0  0  0  0  0  0  0  0  0
   31.8217    2.0857    4.0325 C   0  0  0  0  0  0  0  0  0  0  0  0
   32.8124    2.3231    4.5687 O   0  0  0  0  0  0  0  0  0  0  0  0
   31.1203    3.0328    3.0260 C   0  0  0  0  0  0  0  0  0  0  0  0
   29.7054    3.2750    3.3771 C   0  0  0  0  0  0  0  0  0  0  0  0
   28.9700    2.0044    3.6366 C   0  0  0  0  0  0  0  0  0  0  0  0
   27.6870    1.9703    3.7094 C   0  0  0  0  0  0  0  0  0  0  0  0
   26.8947    3.2234    3.6093 C   0  0  0  0  0  0  0  0  0  0  0  0
   25.6002    3.1416    3.4683 C   0  0  0  0  0  0  0  0  0  0  0  0
   24.9005    1.7346    3.3904 C   0  0  2  0  0  0  0  0  0  0  0  0
   25.1432    1.2258    2.0556 C   0  0  0  0  0  0  0  0  0  0  0  0
   23.4065    3.6676    5.0871 H   0  0  0  0  0  0  0  0  0  0  0  0
   21.8542    2.9620    4.4859 H   0  0  0  0  0  0  0  0  0  0  0  0
   22.9023    3.7785    3.3013 H   0  0  0  0  0  0  0  0  0  0  0  0
   22.7504    0.3664    2.7805 H   0  0  0  0  0  0  0  0  0  0  0  0
   23.4096    1.2788    5.9027 H   0  0  0  0  0  0  0  0  0  0  0  0
   22.4818    0.1438    4.7935 H   0  0  0  0  0  0  0  0  0  0  0  0
   24.8722   -0.6164    5.6453 H   0  0  0  0  0  0  0  0  0  0  0  0
   24.5655   -0.6410    3.8346 H   0  0  0  0  0  0  0  0  0  0  0  0
   25.7481    1.7121    5.4173 H   0  0  0  0  0  0  0  0  0  0  0  0
   26.8175    0.2034    2.9925 H   0  0  0  0  0  0  0  0  0  0  0  0
   27.2238   -1.2205    4.8295 H   0  0  0  0  0  0  0  0  0  0  0  0
   27.9987    0.1379    5.8232 H   0  0  0  0  0  0  0  0  0  0  0  0
   29.6590   -1.2410    4.6590 H   0  0  0  0  0  0  0  0  0  0  0  0
   28.8300   -0.9539    3.0669 H   0  0  0  0  0  0  0  0  0  0  0  0
   31.5861   -0.0772    4.3649 H   0  0  0  0  0  0  0  0  0  0  0  0
   31.4561    2.7949    2.0610 H   0  0  0  0  0  0  0  0  0  0  0  0
   31.6816    4.0349    3.3083 H   0  0  0  0  0  0  0  0  0  0  0  0
   29.4401    4.1844    3.7991 H   0  0  0  0  0  0  0  0  0  0  0  0
   29.2816    3.3757    2.1901 H   0  0  0  0  0  0  0  0  0  0  0  0
   27.3829    4.1797    3.5412 H   0  0  0  0  0  0  0  0  0  0  0  0
   24.9934    4.0236    3.6309 H   0  0  0  0  0  0  0  0  0  0  0  0
   24.3630    1.6568    1.3761 H   0  0  0  0  0  0  0  0  0  0  0  0
   26.1264    1.5449    1.5918 H   0  0  0  0  0  0  0  0  0  0  0  0
   25.0242    0.1075    1.9974 H   0  0  0  0  0  0  0  0  0  0  0  0
  1  2  1  0
  2  3  1  6
  2  4  1  0
  4  5  1  0
  5  6  1  0
  6  7  1  0
  7  8  1  0
  8  9  1  0
  9 10  1  0
 10 11  2  0
 11 12  1  0
 12 13  2  0
 12 14  1  0
 14 15  1  0
 15 16  1  0
 16 17  2  0
 17 18  1  0
 18 19  2  0
 19 20  1  0
 20 21  1  6
 20  2  1  0
 20  6  1  0
 17  7  1  0
 16 10  1  0
  1 22  1  0
  1 23  1  0
  1 24  1  0
  3 25  1  0
  4 26  1  0
  4 27  1  0
  5 28  1  0
  5 29  1  0
  6 30  1  1
  7 31  1  6
  8 32  1  0
  8 33  1  0
  9 34  1  0
  9 35  1  0
 11 36  1  0
 14 37  1  0
 14 38  1  0
 15 39  1  0
 15 40  1  0
 18 41  1  0
 19 42  1  0
 21 43  1  0
 21 44  1  0
 21 45  1  0
M  END
$$$$
