
     RDKit          3D

 45 48  0  0  0  0  0  0  0  0999 V2000
   23.1603    2.7801    5.1306 C   0  0  0  0  0  0  0  0  0  0  0  0
   23.3472    1.8202    4.0327 C   0  0  2  0  0  0  0  0  0  0  0  0
   22.2434    1.8515    3.1256 O   0  0  0  0  0  0  0  0  0  0  0  0
   23.2055    0.3743    4.6081 C   0  0  0  0  0  0  0  0  0  0  0  0
   24.5214   -0.2325    4.4267 C   0  0  0  0  0  0  0  0  0  0  0  0
   25.4651    1.1351    4.2156 C   0  0  1  0  0  0  0  0  0  0  0  0
   26.6766    0.5521    3.6856 C   0  0  2  0  0  0  0  0  0  0  0  0
   27.5673   -0.3435    4.3468 C   0  0  0  0  0  0  0  0  0  0  0  0
   28.3476    0.1507    5.4529 C   0  0  0  0  0  0  0  0  0  0  0  0
   29.2632    1.1572    4.6302 C   0  0  0  0  0  0  0  0  0  0  0  0
   30.5771    0.9381    4.7480 C   0  0  0  0  0  0  0  0  0  0  0  0
   31.3687    1.8556    3.9317 C   0  0  0  0  0  0  0  0  0  0  0  0
   32.5980    1.8582    4.1495 O   0  0  0  0  0  0  0  0  0  0  0  0
   30.6972    2.7011    2.9280 C   0  0  0  0  0  0  0  0  0  0  0  0
   29.4027    3.4126    3.4682 C   0  0  0  0  0  0  0  0  0  0  0  0
   28.6165    2.1050    3.7340 C   0  0  0  0  0  0  0  0  0  0  0  0
   27.3714    1.9602    3.4038 C   0  0  0  0  0  0  0  0  0  0  0  0
   26.6269    3.1453    3.0778 C   0  0  0  0  0  0  0  0  0  0  0  0
   25.1908    3.0808    3.0074 C   0  0  0  0  0  0  0  0  0  0  0  0
   24.5285    1.7556    3.2081 C   0  0  2  0  0  0  0  0  0  0  0  0
   24.4467    1.1688    1.8698 C   0  0  0  0  0  0  0  0  0  0  0  0
   23.8214    2.5217    5.9991 H   0  0  0  0  0  0  0  0  0  0  0  0
   22.0682    2.7107    5.4612 H   0  0  0  0  0  0  0  0  0  0  0  0
   23.3719    3.8329    4.7590 H   0  0  0  0  0  0  0  0  0  0  0  0
   22.1687    0.9376    2.7422 H   0  0  0  0  0  0  0  0  0  0  0  0
   22.5124   -0.2144    3.9433 H   0  0  0  0  0  0  0  0  0  0  0  0
   22.8387    0.3386    5.6114 H   0  0  0  0  0  0  0  0  0  0  0  0
   24.9850   -0.4501    5.4714 H   0  0  0  0  0  0  0  0  0  0  0  0
   24.8478   -1.0110    3.8232 H   0  0  0  0  0  0  0  0  0  0  0  0
   25.4842    1.6269    5.1473 H   0  0  0  0  0  0  0  0  0  0  0  0
   26.4741    0.1767    2.6825 H   0  0  0  0  0  0  0  0  0  0  0  0
   26.8577   -1.1432    4.8918 H   0  0  0  0  0  0  0  0  0  0  0  0
   28.0937   -1.0493    3.7077 H   0  0  0  0  0  0  0  0  0  0  0  0
   27.6876    0.9107    6.0701 H   0  0  0  0  0  0  0  0  0  0  0  0
   28.9013   -0.5125    6.0187 H   0  0  0  0  0  0  0  0  0  0  0  0
   31.0178    0.1847    5.3879 H   0  0  0  0  0  0  0  0  0  0  0  0
   31.4102    3.5189    2.5650 H   0  0  0  0  0  0  0  0  0  0  0  0
   30.3527    2.1276    2.0091 H   0  0  0  0  0  0  0  0  0  0  0  0
   29.0743    3.9510    2.6146 H   0  0  0  0  0  0  0  0  0  0  0  0
   29.6399    3.8604    4.3988 H   0  0  0  0  0  0  0  0  0  0  0  0
   27.0656    4.0864    2.9768 H   0  0  0  0  0  0  0  0  0  0  0  0
   24.6659    3.9535    2.8360 H   0  0  0  0  0  0  0  0  0  0  0  0
   24.5884    0.1202    1.6963 H   0  0  0  0  0  0  0  0  0  0  0  0
   25.2866    1.6929    1.2073 H   0  0  0  0  0  0  0  0  0  0  0  0
   23.5240    1.5625    1.3894 H   0  0  0  0  0  0  0  0  0  0  0  0
  1  2  1  0
  2  3  1  6
  2  4  1  0
  4  5  1  0
  5  6  1  0
  6  7  1  0
  7  8  1  0
  8  9  1  0
  9 10  1  0
 10 11  2  0
 11 12  1  0
 12 13  2  0
 12 14  1  0
 14 15  1  0
 15 16  1  0
 16 17  2  0
 17 18  1  0
 18 19  2  0
 19 20  1  0
 20 21  1  6
 20  2  1  0
 20  6  1  0
 17  7  1  0
 16 10  1  0
  1 22  1  0
  1 23  1  0
  1 24  1  0
  3 25  1  0
  4 26  1  0
  4 27  1  0
  5 28  1  0
  5 29  1  0
  6 30  1  1
  7 31  1  6
  8 32  1  0
  8 33  1  0
  9 34  1  0
  9 35  1  0
 11 36  1  0
 14 37  1  0
 14 38  1  0
 15 39  1  0
 15 40  1  0
 18 41  1  0
 19 42  1  0
 21 43  1  0
 21 44  1  0
 21 45  1  0
M  END
$$$$
