
     RDKit          3D

 45 48  0  0  0  0  0  0  0  0999 V2000
   23.8364    2.8870    5.0246 C   0  0  0  0  0  0  0  0  0  0  0  0
   23.5764    1.8281    4.0426 C   0  0  2  0  0  0  0  0  0  0  0  0
   22.5208    2.1193    3.1664 O   0  0  0  0  0  0  0  0  0  0  0  0
   23.2808    0.4340    4.5679 C   0  0  0  0  0  0  0  0  0  0  0  0
   24.6067   -0.2874    4.5874 C   0  0  0  0  0  0  0  0  0  0  0  0
   25.5985    0.8100    4.2928 C   0  0  1  0  0  0  0  0  0  0  0  0
   26.9972    0.5019    4.1344 C   0  0  2  0  0  0  0  0  0  0  0  0
   27.6431   -0.1183    5.3862 C   0  0  0  0  0  0  0  0  0  0  0  0
   29.0602   -0.3942    4.9309 C   0  0  0  0  0  0  0  0  0  0  0  0
   29.7081    0.8429    4.4996 C   0  0  0  0  0  0  0  0  0  0  0  0
   31.0576    0.8810    4.5678 C   0  0  0  0  0  0  0  0  0  0  0  0
   31.7538    2.0889    4.1010 C   0  0  0  0  0  0  0  0  0  0  0  0
   32.9466    2.3315    4.4015 O   0  0  0  0  0  0  0  0  0  0  0  0
   30.9242    2.9818    3.2398 C   0  0  0  0  0  0  0  0  0  0  0  0
   29.6606    3.3135    3.8909 C   0  0  0  0  0  0  0  0  0  0  0  0
   28.9323    2.0210    4.1098 C   0  0  0  0  0  0  0  0  0  0  0  0
   27.6545    1.8521    3.8810 C   0  0  0  0  0  0  0  0  0  0  0  0
   26.8974    2.9280    3.2966 C   0  0  0  0  0  0  0  0  0  0  0  0
   25.6004    2.7893    2.9715 C   0  0  0  0  0  0  0  0  0  0  0  0
   24.8518    1.4852    3.1992 C   0  0  2  0  0  0  0  0  0  0  0  0
   24.4871    0.7474    2.0214 C   0  0  0  0  0  0  0  0  0  0  0  0
   24.7151    3.4816    4.6984 H   0  0  0  0  0  0  0  0  0  0  0  0
   23.8492    2.4751    6.0355 H   0  0  0  0  0  0  0  0  0  0  0  0
   22.9256    3.5809    5.0615 H   0  0  0  0  0  0  0  0  0  0  0  0
   21.7185    1.5873    3.3683 H   0  0  0  0  0  0  0  0  0  0  0  0
   22.7845    0.5124    5.5421 H   0  0  0  0  0  0  0  0  0  0  0  0
   22.6163   -0.0600    3.8347 H   0  0  0  0  0  0  0  0  0  0  0  0
   24.6759   -1.1851    3.9775 H   0  0  0  0  0  0  0  0  0  0  0  0
   24.8025   -0.6316    5.6478 H   0  0  0  0  0  0  0  0  0  0  0  0
   25.5246    1.5274    5.2013 H   0  0  0  0  0  0  0  0  0  0  0  0
   27.2835   -0.1533    3.3374 H   0  0  0  0  0  0  0  0  0  0  0  0
   27.0844   -1.0440    5.6214 H   0  0  0  0  0  0  0  0  0  0  0  0
   27.6824    0.6552    6.2046 H   0  0  0  0  0  0  0  0  0  0  0  0
   28.9061   -1.0642    4.0281 H   0  0  0  0  0  0  0  0  0  0  0  0
   29.6643   -0.9589    5.6715 H   0  0  0  0  0  0  0  0  0  0  0  0
   31.6194    0.0328    4.9175 H   0  0  0  0  0  0  0  0  0  0  0  0
   31.5461    3.8954    3.0628 H   0  0  0  0  0  0  0  0  0  0  0  0
   30.7654    2.4620    2.2855 H   0  0  0  0  0  0  0  0  0  0  0  0
   29.0466    4.1293    3.5443 H   0  0  0  0  0  0  0  0  0  0  0  0
   29.9700    3.5774    4.9661 H   0  0  0  0  0  0  0  0  0  0  0  0
   27.3239    3.8746    3.0860 H   0  0  0  0  0  0  0  0  0  0  0  0
   25.0277    3.6070    2.5425 H   0  0  0  0  0  0  0  0  0  0  0  0
   23.3996    0.4146    1.9197 H   0  0  0  0  0  0  0  0  0  0  0  0
   24.6316    1.3544    1.0728 H   0  0  0  0  0  0  0  0  0  0  0  0
   25.0424   -0.2134    1.8510 H   0  0  0  0  0  0  0  0  0  0  0  0
  1  2  1  0
  2  3  1  6
  2  4  1  0
  4  5  1  0
  5  6  1  0
  6  7  1  0
  7  8  1  0
  8  9  1  0
  9 10  1  0
 10 11  2  0
 11 12  1  0
 12 13  2  0
 12 14  1  0
 14 15  1  0
 15 16  1  0
 16 17  2  0
 17 18  1  0
 18 19  2  0
 19 20  1  0
 20 21  1  6
 20  2  1  0
 20  6  1  0
 17  7  1  0
 16 10  1  0
  1 22  1  0
  1 23  1  0
  1 24  1  0
  3 25  1  0
  4 26  1  0
  4 27  1  0
  5 28  1  0
  5 29  1  0
  6 30  1  1
  7 31  1  6
  8 32  1  0
  8 33  1  0
  9 34  1  0
  9 35  1  0
 11 36  1  0
 14 37  1  0
 14 38  1  0
 15 39  1  0
 15 40  1  0
 18 41  1  0
 19 42  1  0
 21 43  1  0
 21 44  1  0
 21 45  1  0
M  END
$$$$
