
     RDKit          3D

 45 48  0  0  0  0  0  0  0  0999 V2000
   23.3026    3.0696    4.5543 C   0  0  0  0  0  0  0  0  0  0  0  0
   23.5924    1.7134    4.0923 C   0  0  2  0  0  0  0  0  0  0  0  0
   22.5320    1.5637    3.0058 O   0  0  0  0  0  0  0  0  0  0  0  0
   23.3549    0.5065    4.8746 C   0  0  0  0  0  0  0  0  0  0  0  0
   24.6867   -0.2268    4.7096 C   0  0  0  0  0  0  0  0  0  0  0  0
   25.6412    0.9474    4.4729 C   0  0  1  0  0  0  0  0  0  0  0  0
   26.9972    0.5353    4.0898 C   0  0  2  0  0  0  0  0  0  0  0  0
   27.7326   -0.2908    5.0207 C   0  0  0  0  0  0  0  0  0  0  0  0
   29.0940   -0.5760    4.3617 C   0  0  0  0  0  0  0  0  0  0  0  0
   29.7815    0.7145    4.1316 C   0  0  0  0  0  0  0  0  0  0  0  0
   31.0812    0.7276    3.9294 C   0  0  0  0  0  0  0  0  0  0  0  0
   31.7711    2.0282    3.7554 C   0  0  0  0  0  0  0  0  0  0  0  0
   32.8972    2.1055    3.2333 O   0  0  0  0  0  0  0  0  0  0  0  0
   31.0133    3.2451    4.2499 C   0  0  0  0  0  0  0  0  0  0  0  0
   29.6798    3.2614    3.5720 C   0  0  0  0  0  0  0  0  0  0  0  0
   29.0075    1.9224    3.8747 C   0  0  0  0  0  0  0  0  0  0  0  0
   27.7030    1.8854    3.7812 C   0  0  0  0  0  0  0  0  0  0  0  0
   26.8135    2.9686    3.2968 C   0  0  0  0  0  0  0  0  0  0  0  0
   25.5358    2.8173    3.0423 C   0  0  0  0  0  0  0  0  0  0  0  0
   24.8445    1.4633    3.2458 C   0  0  2  0  0  0  0  0  0  0  0  0
   24.6744    0.7427    2.0711 C   0  0  0  0  0  0  0  0  0  0  0  0
   24.0645    3.8046    4.7318 H   0  0  0  0  0  0  0  0  0  0  0  0
   22.7770    3.6134    3.6301 H   0  0  0  0  0  0  0  0  0  0  0  0
   22.4172    3.1094    5.2679 H   0  0  0  0  0  0  0  0  0  0  0  0
   21.7685    1.3410    3.5793 H   0  0  0  0  0  0  0  0  0  0  0  0
   23.4185    0.8168    5.9989 H   0  0  0  0  0  0  0  0  0  0  0  0
   22.4694   -0.1151    4.7341 H   0  0  0  0  0  0  0  0  0  0  0  0
   24.9584   -0.8055    5.6681 H   0  0  0  0  0  0  0  0  0  0  0  0
   24.6870   -0.9024    3.8845 H   0  0  0  0  0  0  0  0  0  0  0  0
   25.5607    1.6878    5.2551 H   0  0  0  0  0  0  0  0  0  0  0  0
   27.0973    0.0320    3.0551 H   0  0  0  0  0  0  0  0  0  0  0  0
   27.9539    0.1996    6.0343 H   0  0  0  0  0  0  0  0  0  0  0  0
   27.1795   -1.1963    5.2441 H   0  0  0  0  0  0  0  0  0  0  0  0
   28.8660   -1.0099    3.3418 H   0  0  0  0  0  0  0  0  0  0  0  0
   29.6692   -1.2366    5.0027 H   0  0  0  0  0  0  0  0  0  0  0  0
   31.5906   -0.2002    3.8902 H   0  0  0  0  0  0  0  0  0  0  0  0
   31.5697    4.1811    4.1364 H   0  0  0  0  0  0  0  0  0  0  0  0
   30.8788    3.0803    5.3598 H   0  0  0  0  0  0  0  0  0  0  0  0
   29.7570    3.4683    2.5160 H   0  0  0  0  0  0  0  0  0  0  0  0
   29.1105    4.1065    4.0750 H   0  0  0  0  0  0  0  0  0  0  0  0
   27.3361    3.8966    3.1775 H   0  0  0  0  0  0  0  0  0  0  0  0
   24.9525    3.6445    2.6824 H   0  0  0  0  0  0  0  0  0  0  0  0
   25.4553    1.0871    1.2433 H   0  0  0  0  0  0  0  0  0  0  0  0
   24.7992   -0.3704    2.0390 H   0  0  0  0  0  0  0  0  0  0  0  0
   23.7219    0.9933    1.5590 H   0  0  0  0  0  0  0  0  0  0  0  0
  1  2  1  0
  2  3  1  6
  2  4  1  0
  4  5  1  0
  5  6  1  0
  6  7  1  0
  7  8  1  0
  8  9  1  0
  9 10  1  0
 10 11  2  0
 11 12  1  0
 12 13  2  0
 12 14  1  0
 14 15  1  0
 15 16  1  0
 16 17  2  0
 17 18  1  0
 18 19  2  0
 19 20  1  0
 20 21  1  6
 20  2  1  0
 20  6  1  0
 17  7  1  0
 16 10  1  0
  1 22  1  0
  1 23  1  0
  1 24  1  0
  3 25  1  0
  4 26  1  0
  4 27  1  0
  5 28  1  0
  5 29  1  0
  6 30  1  1
  7 31  1  6
  8 32  1  0
  8 33  1  0
  9 34  1  0
  9 35  1  0
 11 36  1  0
 14 37  1  0
 14 38  1  0
 15 39  1  0
 15 40  1  0
 18 41  1  0
 19 42  1  0
 21 43  1  0
 21 44  1  0
 21 45  1  0
M  END
$$$$
