
     RDKit          3D

 45 48  0  0  0  0  0  0  0  0999 V2000
   23.2166    3.3702    4.9371 C   0  0  0  0  0  0  0  0  0  0  0  0
   23.3932    2.1335    4.2512 C   0  0  2  0  0  0  0  0  0  0  0  0
   22.1801    1.9998    3.3691 O   0  0  0  0  0  0  0  0  0  0  0  0
   23.2334    0.7970    4.9948 C   0  0  0  0  0  0  0  0  0  0  0  0
   24.4770    0.0536    4.5399 C   0  0  0  0  0  0  0  0  0  0  0  0
   25.4573    1.2532    4.2253 C   0  0  1  0  0  0  0  0  0  0  0  0
   26.6262    0.7332    3.5739 C   0  0  2  0  0  0  0  0  0  0  0  0
   27.6096   -0.2331    3.9525 C   0  0  0  0  0  0  0  0  0  0  0  0
   28.5785    0.0441    5.0616 C   0  0  0  0  0  0  0  0  0  0  0  0
   29.3493    1.2250    4.5653 C   0  0  0  0  0  0  0  0  0  0  0  0
   30.6245    1.2864    4.8923 C   0  0  0  0  0  0  0  0  0  0  0  0
   31.3672    2.3666    4.3910 C   0  0  0  0  0  0  0  0  0  0  0  0
   32.5264    2.6163    4.8834 O   0  0  0  0  0  0  0  0  0  0  0  0
   30.7745    3.1785    3.2590 C   0  0  0  0  0  0  0  0  0  0  0  0
   29.3591    3.5152    3.6021 C   0  0  0  0  0  0  0  0  0  0  0  0
   28.6116    2.2115    3.8043 C   0  0  0  0  0  0  0  0  0  0  0  0
   27.3648    2.1203    3.3860 C   0  0  0  0  0  0  0  0  0  0  0  0
   26.5489    3.2106    2.9297 C   0  0  0  0  0  0  0  0  0  0  0  0
   25.1909    3.1449    2.8570 C   0  0  0  0  0  0  0  0  0  0  0  0
   24.4850    1.8779    3.2585 C   0  0  2  0  0  0  0  0  0  0  0  0
   24.2206    1.2263    1.9934 C   0  0  0  0  0  0  0  0  0  0  0  0
   22.3437    3.2220    5.6848 H   0  0  0  0  0  0  0  0  0  0  0  0
   24.0304    3.7817    5.5342 H   0  0  0  0  0  0  0  0  0  0  0  0
   22.7157    4.1739    4.2607 H   0  0  0  0  0  0  0  0  0  0  0  0
   22.1404    1.0208    3.1010 H   0  0  0  0  0  0  0  0  0  0  0  0
   23.4104    1.1139    6.0665 H   0  0  0  0  0  0  0  0  0  0  0  0
   22.3044    0.3182    4.8466 H   0  0  0  0  0  0  0  0  0  0  0  0
   24.2678   -0.5446    3.6852 H   0  0  0  0  0  0  0  0  0  0  0  0
   24.9534   -0.4973    5.4028 H   0  0  0  0  0  0  0  0  0  0  0  0
   25.5493    1.8622    5.0909 H   0  0  0  0  0  0  0  0  0  0  0  0
   26.3868    0.5281    2.4907 H   0  0  0  0  0  0  0  0  0  0  0  0
   27.0194   -1.2296    4.1873 H   0  0  0  0  0  0  0  0  0  0  0  0
   28.2158   -0.5421    3.0781 H   0  0  0  0  0  0  0  0  0  0  0  0
   29.1965   -0.8240    5.2535 H   0  0  0  0  0  0  0  0  0  0  0  0
   28.1345    0.3613    6.0081 H   0  0  0  0  0  0  0  0  0  0  0  0
   31.0640    0.5035    5.4895 H   0  0  0  0  0  0  0  0  0  0  0  0
   30.9466    2.6522    2.3301 H   0  0  0  0  0  0  0  0  0  0  0  0
   31.3858    4.1300    3.2061 H   0  0  0  0  0  0  0  0  0  0  0  0
   28.9635    4.1305    2.8053 H   0  0  0  0  0  0  0  0  0  0  0  0
   29.3408    4.0862    4.5960 H   0  0  0  0  0  0  0  0  0  0  0  0
   27.0285    4.1347    2.6892 H   0  0  0  0  0  0  0  0  0  0  0  0
   24.6729    4.0208    2.5199 H   0  0  0  0  0  0  0  0  0  0  0  0
   23.2925    1.6843    1.5220 H   0  0  0  0  0  0  0  0  0  0  0  0
   25.0073    1.3610    1.2112 H   0  0  0  0  0  0  0  0  0  0  0  0
   23.9450    0.1362    2.0191 H   0  0  0  0  0  0  0  0  0  0  0  0
  1  2  1  0
  2  3  1  6
  2  4  1  0
  4  5  1  0
  5  6  1  0
  6  7  1  0
  7  8  1  0
  8  9  1  0
  9 10  1  0
 10 11  2  0
 11 12  1  0
 12 13  2  0
 12 14  1  0
 14 15  1  0
 15 16  1  0
 16 17  2  0
 17 18  1  0
 18 19  2  0
 19 20  1  0
 20 21  1  6
 20  2  1  0
 20  6  1  0
 17  7  1  0
 16 10  1  0
  1 22  1  0
  1 23  1  0
  1 24  1  0
  3 25  1  0
  4 26  1  0
  4 27  1  0
  5 28  1  0
  5 29  1  0
  6 30  1  1
  7 31  1  6
  8 32  1  0
  8 33  1  0
  9 34  1  0
  9 35  1  0
 11 36  1  0
 14 37  1  0
 14 38  1  0
 15 39  1  0
 15 40  1  0
 18 41  1  0
 19 42  1  0
 21 43  1  0
 21 44  1  0
 21 45  1  0
M  END
$$$$
