
     RDKit          3D

 53 54  0  0  0  0  0  0  0  0999 V2000
   22.5724   -0.0019    8.0385 C   0  0  0  0  0  0  0  0  0  0  0  0
   22.5314    1.3403    7.7705 C   0  0  0  0  0  0  0  0  0  0  0  0
   21.7877    1.6968    6.5662 C   0  0  0  0  0  0  0  0  0  0  0  0
   23.2546    2.2350    8.7161 C   0  0  2  0  0  0  0  0  0  0  0  0
   22.2592    2.9586    9.6671 C   0  0  0  0  0  0  0  0  0  0  0  0
   21.6300    4.0953    8.8208 C   0  0  0  0  0  0  0  0  0  0  0  0
   22.7784    5.1188    8.9138 C   0  0  0  0  0  0  0  0  0  0  0  0
   22.5918    6.5174    9.3071 C   0  0  0  0  0  0  0  0  0  0  0  0
   23.9630    4.6167    8.6341 C   0  0  0  0  0  0  0  0  0  0  0  0
   24.2002    3.1619    8.2294 C   0  0  1  0  0  0  0  0  0  0  0  0
   25.6774    3.0934    8.2448 C   0  0  0  0  0  0  0  0  0  0  0  0
   26.3505    3.1751    9.4568 C   0  0  0  0  0  0  0  0  0  0  0  0
   25.7180    2.9208   10.6614 O   0  0  0  0  0  0  0  0  0  0  0  0
   27.6887    3.5211    9.4522 C   0  0  0  0  0  0  0  0  0  0  0  0
   28.3683    3.7905    8.2774 C   0  0  0  0  0  0  0  0  0  0  0  0
   29.6585    4.4170    8.1301 C   0  0  0  0  0  0  0  0  0  0  0  0
   30.9185    3.7933    7.9181 C   0  0  0  0  0  0  0  0  0  0  0  0
   31.5118    2.9087    8.9725 C   0  0  0  0  0  0  0  0  0  0  0  0
   32.9166    2.5205    8.3722 C   0  0  0  0  0  0  0  0  0  0  0  0
   33.6683    1.7828    9.4125 C   0  0  0  0  0  0  0  0  0  0  0  0
   27.6564    3.6861    7.0376 C   0  0  0  0  0  0  0  0  0  0  0  0
   26.3370    3.3416    7.0300 C   0  0  0  0  0  0  0  0  0  0  0  0
   25.6488    3.2263    5.8124 O   0  0  0  0  0  0  0  0  0  0  0  0
   23.1308   -0.3502    8.9489 H   0  0  0  0  0  0  0  0  0  0  0  0
   22.0972   -0.7282    7.3982 H   0  0  0  0  0  0  0  0  0  0  0  0
   21.7453    0.8310    5.8375 H   0  0  0  0  0  0  0  0  0  0  0  0
   20.7275    1.9571    6.7370 H   0  0  0  0  0  0  0  0  0  0  0  0
   22.3592    2.4692    6.0170 H   0  0  0  0  0  0  0  0  0  0  0  0
   23.7105    1.5402    9.4866 H   0  0  0  0  0  0  0  0  0  0  0  0
   22.7738    3.4102   10.4924 H   0  0  0  0  0  0  0  0  0  0  0  0
   21.4610    2.2593    9.9405 H   0  0  0  0  0  0  0  0  0  0  0  0
   20.8443    4.5069    9.4192 H   0  0  0  0  0  0  0  0  0  0  0  0
   21.5293    3.8574    7.7962 H   0  0  0  0  0  0  0  0  0  0  0  0
   23.0015    6.6572   10.3374 H   0  0  0  0  0  0  0  0  0  0  0  0
   23.2559    7.1073    8.6318 H   0  0  0  0  0  0  0  0  0  0  0  0
   21.5582    6.8645    9.2039 H   0  0  0  0  0  0  0  0  0  0  0  0
   24.7736    5.3335    8.6939 H   0  0  0  0  0  0  0  0  0  0  0  0
   23.9160    3.2644    7.0761 H   0  0  0  0  0  0  0  0  0  0  0  0
   25.6332    1.9380   10.8913 H   0  0  0  0  0  0  0  0  0  0  0  0
   28.2631    3.5797   10.3504 H   0  0  0  0  0  0  0  0  0  0  0  0
   29.5253    5.3752    7.4788 H   0  0  0  0  0  0  0  0  0  0  0  0
   29.7754    4.9771    9.1993 H   0  0  0  0  0  0  0  0  0  0  0  0
   30.9659    3.1691    6.9460 H   0  0  0  0  0  0  0  0  0  0  0  0
   31.6941    4.5956    7.6198 H   0  0  0  0  0  0  0  0  0  0  0  0
   30.9188    1.9645    9.1106 H   0  0  0  0  0  0  0  0  0  0  0  0
   31.6349    3.4316    9.9191 H   0  0  0  0  0  0  0  0  0  0  0  0
   32.7408    1.9697    7.4229 H   0  0  0  0  0  0  0  0  0  0  0  0
   33.4651    3.4636    8.1250 H   0  0  0  0  0  0  0  0  0  0  0  0
   34.7602    1.7438    9.1443 H   0  0  0  0  0  0  0  0  0  0  0  0
   33.6187    2.4262   10.3384 H   0  0  0  0  0  0  0  0  0  0  0  0
   33.2104    0.8335    9.6077 H   0  0  0  0  0  0  0  0  0  0  0  0
   28.1784    3.8928    6.0928 H   0  0  0  0  0  0  0  0  0  0  0  0
   25.5938    2.2839    5.4124 H   0  0  0  0  0  0  0  0  0  0  0  0
  1  2  2  0
  2  3  1  0
  2  4  1  0
  4  5  1  0
  5  6  1  0
  6  7  1  0
  7  8  1  0
  7  9  2  0
  9 10  1  0
 10 11  1  0
 11 12  2  0
 12 13  1  0
 12 14  1  0
 14 15  2  0
 15 16  1  0
 16 17  1  0
 17 18  1  0
 18 19  1  0
 19 20  1  0
 15 21  1  0
 21 22  2  0
 22 23  1  0
 10  4  1  0
 22 11  1  0
  1 24  1  0
  1 25  1  0
  3 26  1  0
  3 27  1  0
  3 28  1  0
  4 29  1  1
  5 30  1  0
  5 31  1  0
  6 32  1  0
  6 33  1  0
  8 34  1  0
  8 35  1  0
  8 36  1  0
  9 37  1  0
 10 38  1  6
 13 39  1  0
 14 40  1  0
 16 41  1  0
 16 42  1  0
 17 43  1  0
 17 44  1  0
 18 45  1  0
 18 46  1  0
 19 47  1  0
 19 48  1  0
 20 49  1  0
 20 50  1  0
 20 51  1  0
 21 52  1  0
 23 53  1  0
M  END
$$$$
