
     RDKit          3D

 53 54  0  0  0  0  0  0  0  0999 V2000
   23.0167    0.2127    7.9438 C   0  0  0  0  0  0  0  0  0  0  0  0
   23.5772    1.2289    8.5893 C   0  0  0  0  0  0  0  0  0  0  0  0
   24.2914    1.0469    9.9037 C   0  0  0  0  0  0  0  0  0  0  0  0
   23.4663    2.5813    8.0592 C   0  0  2  0  0  0  0  0  0  0  0  0
   22.3867    2.6943    6.9632 C   0  0  0  0  0  0  0  0  0  0  0  0
   22.0263    4.1417    6.7189 C   0  0  0  0  0  0  0  0  0  0  0  0
   22.8718    5.0954    7.4590 C   0  0  0  0  0  0  0  0  0  0  0  0
   22.3882    6.4441    7.8319 C   0  0  0  0  0  0  0  0  0  0  0  0
   24.1231    4.7394    7.8922 C   0  0  0  0  0  0  0  0  0  0  0  0
   24.6104    3.3326    7.5800 C   0  0  1  0  0  0  0  0  0  0  0  0
   25.9637    3.1010    7.9154 C   0  0  0  0  0  0  0  0  0  0  0  0
   26.6194    1.9409    7.4178 C   0  0  0  0  0  0  0  0  0  0  0  0
   25.9427    0.9819    6.7113 O   0  0  0  0  0  0  0  0  0  0  0  0
   27.9830    1.6924    7.5955 C   0  0  0  0  0  0  0  0  0  0  0  0
   28.7438    2.5616    8.2671 C   0  0  0  0  0  0  0  0  0  0  0  0
   30.1998    2.5455    8.5498 C   0  0  0  0  0  0  0  0  0  0  0  0
   30.9851    3.2411    7.4176 C   0  0  0  0  0  0  0  0  0  0  0  0
   32.3310    3.6904    7.9640 C   0  0  0  0  0  0  0  0  0  0  0  0
   33.2151    2.6588    8.5273 C   0  0  0  0  0  0  0  0  0  0  0  0
   33.6657    1.6704    7.5093 C   0  0  0  0  0  0  0  0  0  0  0  0
   28.1162    3.7017    8.7673 C   0  0  0  0  0  0  0  0  0  0  0  0
   26.7672    3.9679    8.6036 C   0  0  0  0  0  0  0  0  0  0  0  0
   26.3508    5.1566    9.2021 O   0  0  0  0  0  0  0  0  0  0  0  0
   23.0457   -0.8387    8.3249 H   0  0  0  0  0  0  0  0  0  0  0  0
   22.5448    0.3943    6.9928 H   0  0  0  0  0  0  0  0  0  0  0  0
   23.5293    0.8983   10.6862 H   0  0  0  0  0  0  0  0  0  0  0  0
   24.8807    0.0845    9.8445 H   0  0  0  0  0  0  0  0  0  0  0  0
   24.9334    1.9058   10.1641 H   0  0  0  0  0  0  0  0  0  0  0  0
   22.9250    3.1377    8.9339 H   0  0  0  0  0  0  0  0  0  0  0  0
   22.7866    2.2628    6.0441 H   0  0  0  0  0  0  0  0  0  0  0  0
   21.4788    2.0459    7.2432 H   0  0  0  0  0  0  0  0  0  0  0  0
   20.9408    4.3031    6.9906 H   0  0  0  0  0  0  0  0  0  0  0  0
   22.1278    4.3519    5.6175 H   0  0  0  0  0  0  0  0  0  0  0  0
   22.7565    7.2194    7.1187 H   0  0  0  0  0  0  0  0  0  0  0  0
   21.2811    6.5201    7.8601 H   0  0  0  0  0  0  0  0  0  0  0  0
   22.7229    6.6880    8.8965 H   0  0  0  0  0  0  0  0  0  0  0  0
   24.6334    5.4882    8.4529 H   0  0  0  0  0  0  0  0  0  0  0  0
   24.5674    3.3467    6.4127 H   0  0  0  0  0  0  0  0  0  0  0  0
   25.6146    1.0400    5.7524 H   0  0  0  0  0  0  0  0  0  0  0  0
   28.4282    0.8205    7.1911 H   0  0  0  0  0  0  0  0  0  0  0  0
   30.5358    1.4670    8.5244 H   0  0  0  0  0  0  0  0  0  0  0  0
   30.4663    2.9630    9.5150 H   0  0  0  0  0  0  0  0  0  0  0  0
   30.4353    4.0790    6.9957 H   0  0  0  0  0  0  0  0  0  0  0  0
   31.1395    2.5062    6.5738 H   0  0  0  0  0  0  0  0  0  0  0  0
   32.8342    4.3209    7.1643 H   0  0  0  0  0  0  0  0  0  0  0  0
   32.0439    4.4662    8.7923 H   0  0  0  0  0  0  0  0  0  0  0  0
   34.1173    3.1395    8.9949 H   0  0  0  0  0  0  0  0  0  0  0  0
   32.7611    2.0854    9.4000 H   0  0  0  0  0  0  0  0  0  0  0  0
   34.5462    2.0731    6.9569 H   0  0  0  0  0  0  0  0  0  0  0  0
   34.1570    0.8166    8.1071 H   0  0  0  0  0  0  0  0  0  0  0  0
   32.8512    1.2891    6.8979 H   0  0  0  0  0  0  0  0  0  0  0  0
   28.7657    4.4239    9.2878 H   0  0  0  0  0  0  0  0  0  0  0  0
   26.9077    6.0023    9.0814 H   0  0  0  0  0  0  0  0  0  0  0  0
  1  2  2  0
  2  3  1  0
  2  4  1  0
  4  5  1  0
  5  6  1  0
  6  7  1  0
  7  8  1  0
  7  9  2  0
  9 10  1  0
 10 11  1  0
 11 12  2  0
 12 13  1  0
 12 14  1  0
 14 15  2  0
 15 16  1  0
 16 17  1  0
 17 18  1  0
 18 19  1  0
 19 20  1  0
 15 21  1  0
 21 22  2  0
 22 23  1  0
 10  4  1  0
 22 11  1  0
  1 24  1  0
  1 25  1  0
  3 26  1  0
  3 27  1  0
  3 28  1  0
  4 29  1  1
  5 30  1  0
  5 31  1  0
  6 32  1  0
  6 33  1  0
  8 34  1  0
  8 35  1  0
  8 36  1  0
  9 37  1  0
 10 38  1  6
 13 39  1  0
 14 40  1  0
 16 41  1  0
 16 42  1  0
 17 43  1  0
 17 44  1  0
 18 45  1  0
 18 46  1  0
 19 47  1  0
 19 48  1  0
 20 49  1  0
 20 50  1  0
 20 51  1  0
 21 52  1  0
 23 53  1  0
M  END
$$$$
