
     RDKit          3D

 53 54  0  0  0  0  0  0  0  0999 V2000
   21.7430    1.0675    7.1681 C   0  0  0  0  0  0  0  0  0  0  0  0
   22.9571    1.3667    7.2554 C   0  0  0  0  0  0  0  0  0  0  0  0
   23.7578    0.9519    5.9623 C   0  0  0  0  0  0  0  0  0  0  0  0
   23.8035    1.9633    8.2960 C   0  0  2  0  0  0  0  0  0  0  0  0
   22.8363    2.3187    9.4842 C   0  0  0  0  0  0  0  0  0  0  0  0
   21.9929    3.4984    9.0223 C   0  0  0  0  0  0  0  0  0  0  0  0
   23.0100    4.5994    9.3416 C   0  0  0  0  0  0  0  0  0  0  0  0
   22.6491    5.7877   10.1606 C   0  0  0  0  0  0  0  0  0  0  0  0
   24.2228    4.3740    8.8469 C   0  0  0  0  0  0  0  0  0  0  0  0
   24.5875    3.1338    8.0244 C   0  0  1  0  0  0  0  0  0  0  0  0
   26.0970    3.0291    8.2886 C   0  0  0  0  0  0  0  0  0  0  0  0
   26.8595    4.1842    8.3073 C   0  0  0  0  0  0  0  0  0  0  0  0
   26.4059    5.4336    7.8769 O   0  0  0  0  0  0  0  0  0  0  0  0
   28.1898    4.2116    8.7837 C   0  0  0  0  0  0  0  0  0  0  0  0
   28.7600    3.0589    9.2375 C   0  0  0  0  0  0  0  0  0  0  0  0
   30.0305    2.8900    9.9221 C   0  0  0  0  0  0  0  0  0  0  0  0
   31.1727    2.3405    9.1874 C   0  0  0  0  0  0  0  0  0  0  0  0
   31.6959    3.1753    8.0997 C   0  0  0  0  0  0  0  0  0  0  0  0
   32.8759    2.4457    7.4812 C   0  0  0  0  0  0  0  0  0  0  0  0
   33.9700    2.2313    8.4900 C   0  0  0  0  0  0  0  0  0  0  0  0
   27.9610    1.8994    9.1944 C   0  0  0  0  0  0  0  0  0  0  0  0
   26.6652    1.8422    8.7437 C   0  0  0  0  0  0  0  0  0  0  0  0
   26.0547    0.6244    8.7649 O   0  0  0  0  0  0  0  0  0  0  0  0
   20.8443    0.7420    6.8514 H   0  0  0  0  0  0  0  0  0  0  0  0
   21.3172    1.3562    8.3474 H   0  0  0  0  0  0  0  0  0  0  0  0
   23.7140   -0.1347    5.9559 H   0  0  0  0  0  0  0  0  0  0  0  0
   24.7783    1.2923    5.9968 H   0  0  0  0  0  0  0  0  0  0  0  0
   23.2423    1.3755    5.0779 H   0  0  0  0  0  0  0  0  0  0  0  0
   24.3335    1.1409    8.8386 H   0  0  0  0  0  0  0  0  0  0  0  0
   23.5355    2.6456   10.3002 H   0  0  0  0  0  0  0  0  0  0  0  0
   22.3230    1.4146    9.8002 H   0  0  0  0  0  0  0  0  0  0  0  0
   21.8803    3.5092    7.9107 H   0  0  0  0  0  0  0  0  0  0  0  0
   21.0925    3.5359    9.5964 H   0  0  0  0  0  0  0  0  0  0  0  0
   23.4346    6.5156   10.1224 H   0  0  0  0  0  0  0  0  0  0  0  0
   22.6890    5.3918   11.2257 H   0  0  0  0  0  0  0  0  0  0  0  0
   21.6466    6.1553   10.0070 H   0  0  0  0  0  0  0  0  0  0  0  0
   24.9548    5.1458    9.0998 H   0  0  0  0  0  0  0  0  0  0  0  0
   24.5002    3.4741    6.9561 H   0  0  0  0  0  0  0  0  0  0  0  0
   26.1971    5.5672    6.9215 H   0  0  0  0  0  0  0  0  0  0  0  0
   28.7739    5.1038    8.8072 H   0  0  0  0  0  0  0  0  0  0  0  0
   29.7924    2.3084   10.8858 H   0  0  0  0  0  0  0  0  0  0  0  0
   30.2640    3.9116   10.3687 H   0  0  0  0  0  0  0  0  0  0  0  0
   30.8725    1.3636    8.6475 H   0  0  0  0  0  0  0  0  0  0  0  0
   31.9579    1.9275    9.8932 H   0  0  0  0  0  0  0  0  0  0  0  0
   32.0370    4.1678    8.5252 H   0  0  0  0  0  0  0  0  0  0  0  0
   30.9378    3.3774    7.3377 H   0  0  0  0  0  0  0  0  0  0  0  0
   32.4495    1.4674    7.1283 H   0  0  0  0  0  0  0  0  0  0  0  0
   33.2702    2.9897    6.6013 H   0  0  0  0  0  0  0  0  0  0  0  0
   34.6436    1.4218    8.0723 H   0  0  0  0  0  0  0  0  0  0  0  0
   34.5569    3.1921    8.5841 H   0  0  0  0  0  0  0  0  0  0  0  0
   33.6512    1.8971    9.4637 H   0  0  0  0  0  0  0  0  0  0  0  0
   28.3867    0.9451    9.5128 H   0  0  0  0  0  0  0  0  0  0  0  0
   26.1562   -0.0094    7.9463 H   0  0  0  0  0  0  0  0  0  0  0  0
  1  2  2  0
  2  3  1  0
  2  4  1  0
  4  5  1  0
  5  6  1  0
  6  7  1  0
  7  8  1  0
  7  9  2  0
  9 10  1  0
 10 11  1  0
 11 12  2  0
 12 13  1  0
 12 14  1  0
 14 15  2  0
 15 16  1  0
 16 17  1  0
 17 18  1  0
 18 19  1  0
 19 20  1  0
 15 21  1  0
 21 22  2  0
 22 23  1  0
 10  4  1  0
 22 11  1  0
  1 24  1  0
  1 25  1  0
  3 26  1  0
  3 27  1  0
  3 28  1  0
  4 29  1  1
  5 30  1  0
  5 31  1  0
  6 32  1  0
  6 33  1  0
  8 34  1  0
  8 35  1  0
  8 36  1  0
  9 37  1  0
 10 38  1  6
 13 39  1  0
 14 40  1  0
 16 41  1  0
 16 42  1  0
 17 43  1  0
 17 44  1  0
 18 45  1  0
 18 46  1  0
 19 47  1  0
 19 48  1  0
 20 49  1  0
 20 50  1  0
 20 51  1  0
 21 52  1  0
 23 53  1  0
M  END
$$$$
