
     RDKit          3D

 53 54  0  0  0  0  0  0  0  0999 V2000
   22.1011    0.1828    8.0375 C   0  0  0  0  0  0  0  0  0  0  0  0
   22.5793    1.4577    8.0052 C   0  0  0  0  0  0  0  0  0  0  0  0
   21.9765    2.2632    6.8540 C   0  0  0  0  0  0  0  0  0  0  0  0
   23.5918    1.9949    8.9151 C   0  0  2  0  0  0  0  0  0  0  0  0
   22.9444    2.4267   10.1842 C   0  0  0  0  0  0  0  0  0  0  0  0
   22.0917    3.6059    9.7615 C   0  0  0  0  0  0  0  0  0  0  0  0
   23.0314    4.7270    9.4834 C   0  0  0  0  0  0  0  0  0  0  0  0
   22.7757    6.1344    9.9197 C   0  0  0  0  0  0  0  0  0  0  0  0
   24.1905    4.4552    8.7323 C   0  0  0  0  0  0  0  0  0  0  0  0
   24.4367    2.9784    8.2854 C   0  0  1  0  0  0  0  0  0  0  0  0
   25.8978    2.7684    8.1210 C   0  0  0  0  0  0  0  0  0  0  0  0
   26.4865    2.6657    6.8885 C   0  0  0  0  0  0  0  0  0  0  0  0
   25.6831    2.7273    5.7888 O   0  0  0  0  0  0  0  0  0  0  0  0
   27.8179    2.5455    6.7998 C   0  0  0  0  0  0  0  0  0  0  0  0
   28.6940    2.4938    7.9421 C   0  0  0  0  0  0  0  0  0  0  0  0
   30.1008    2.1693    7.7455 C   0  0  0  0  0  0  0  0  0  0  0  0
   30.7548    1.5182    8.9094 C   0  0  0  0  0  0  0  0  0  0  0  0
   31.5498    2.4333    9.8336 C   0  0  0  0  0  0  0  0  0  0  0  0
   32.6240    3.0737    8.9197 C   0  0  0  0  0  0  0  0  0  0  0  0
   33.7016    3.6749    9.7714 C   0  0  0  0  0  0  0  0  0  0  0  0
   28.1540    2.5655    9.1943 C   0  0  0  0  0  0  0  0  0  0  0  0
   26.7530    2.7109    9.1683 C   0  0  0  0  0  0  0  0  0  0  0  0
   26.2677    2.8324   10.5264 O   0  0  0  0  0  0  0  0  0  0  0  0
   21.5181   -0.4589    7.6701 H   0  0  0  0  0  0  0  0  0  0  0  0
   22.8331   -0.4209    8.7364 H   0  0  0  0  0  0  0  0  0  0  0  0
   21.0467    1.7421    6.5841 H   0  0  0  0  0  0  0  0  0  0  0  0
   22.7175    1.8978    6.0366 H   0  0  0  0  0  0  0  0  0  0  0  0
   22.0135    3.2729    6.9099 H   0  0  0  0  0  0  0  0  0  0  0  0
   24.3586    1.1649    9.2638 H   0  0  0  0  0  0  0  0  0  0  0  0
   22.3185    1.5641   10.5096 H   0  0  0  0  0  0  0  0  0  0  0  0
   23.5824    2.7417   11.0029 H   0  0  0  0  0  0  0  0  0  0  0  0
   21.3400    3.4848    9.0332 H   0  0  0  0  0  0  0  0  0  0  0  0
   21.4906    3.8955   10.7244 H   0  0  0  0  0  0  0  0  0  0  0  0
   23.4972    6.4032   10.7094 H   0  0  0  0  0  0  0  0  0  0  0  0
   22.7933    6.8388    9.0848 H   0  0  0  0  0  0  0  0  0  0  0  0
   21.7620    6.1987   10.4396 H   0  0  0  0  0  0  0  0  0  0  0  0
   24.8376    5.2752    8.5557 H   0  0  0  0  0  0  0  0  0  0  0  0
   24.0708    3.0976    7.1999 H   0  0  0  0  0  0  0  0  0  0  0  0
   25.5189    1.8275    5.3012 H   0  0  0  0  0  0  0  0  0  0  0  0
   28.2862    2.5660    5.8318 H   0  0  0  0  0  0  0  0  0  0  0  0
   30.1260    1.3943    6.8975 H   0  0  0  0  0  0  0  0  0  0  0  0
   30.7413    2.9916    7.3257 H   0  0  0  0  0  0  0  0  0  0  0  0
   31.3257    0.6307    8.7169 H   0  0  0  0  0  0  0  0  0  0  0  0
   29.9068    1.1530    9.6253 H   0  0  0  0  0  0  0  0  0  0  0  0
   31.0078    3.2191   10.3199 H   0  0  0  0  0  0  0  0  0  0  0  0
   32.0891    1.8112   10.5608 H   0  0  0  0  0  0  0  0  0  0  0  0
   32.8586    2.4193    8.1279 H   0  0  0  0  0  0  0  0  0  0  0  0
   32.0402    3.9900    8.4904 H   0  0  0  0  0  0  0  0  0  0  0  0
   33.2970    4.3286   10.5245 H   0  0  0  0  0  0  0  0  0  0  0  0
   34.2333    2.7886   10.2558 H   0  0  0  0  0  0  0  0  0  0  0  0
   34.4412    4.1644    9.0710 H   0  0  0  0  0  0  0  0  0  0  0  0
   28.6845    2.4858   10.0583 H   0  0  0  0  0  0  0  0  0  0  0  0
   26.1951    1.7924   10.8147 H   0  0  0  0  0  0  0  0  0  0  0  0
  1  2  2  0
  2  3  1  0
  2  4  1  0
  4  5  1  0
  5  6  1  0
  6  7  1  0
  7  8  1  0
  7  9  2  0
  9 10  1  0
 10 11  1  0
 11 12  2  0
 12 13  1  0
 12 14  1  0
 14 15  2  0
 15 16  1  0
 16 17  1  0
 17 18  1  0
 18 19  1  0
 19 20  1  0
 15 21  1  0
 21 22  2  0
 22 23  1  0
 10  4  1  0
 22 11  1  0
  1 24  1  0
  1 25  1  0
  3 26  1  0
  3 27  1  0
  3 28  1  0
  4 29  1  1
  5 30  1  0
  5 31  1  0
  6 32  1  0
  6 33  1  0
  8 34  1  0
  8 35  1  0
  8 36  1  0
  9 37  1  0
 10 38  1  6
 13 39  1  0
 14 40  1  0
 16 41  1  0
 16 42  1  0
 17 43  1  0
 17 44  1  0
 18 45  1  0
 18 46  1  0
 19 47  1  0
 19 48  1  0
 20 49  1  0
 20 50  1  0
 20 51  1  0
 21 52  1  0
 23 53  1  0
M  END
$$$$
