
     RDKit          3D

 53 54  0  0  0  0  0  0  0  0999 V2000
   23.0345    0.9695    6.5400 C   0  0  0  0  0  0  0  0  0  0  0  0
   23.0396    1.2294    7.8248 C   0  0  0  0  0  0  0  0  0  0  0  0
   22.2193    0.2725    8.7103 C   0  0  0  0  0  0  0  0  0  0  0  0
   23.7446    2.2761    8.5524 C   0  0  2  0  0  0  0  0  0  0  0  0
   22.5246    3.1699    8.9354 C   0  0  0  0  0  0  0  0  0  0  0  0
   22.9203    4.4214    9.6475 C   0  0  0  0  0  0  0  0  0  0  0  0
   23.7988    5.1935    8.6386 C   0  0  0  0  0  0  0  0  0  0  0  0
   23.7155    6.6804    8.6204 C   0  0  0  0  0  0  0  0  0  0  0  0
   24.5380    4.5171    7.7975 C   0  0  0  0  0  0  0  0  0  0  0  0
   24.6593    3.0283    7.6812 C   0  0  1  0  0  0  0  0  0  0  0  0
   26.0987    2.6765    7.7555 C   0  0  0  0  0  0  0  0  0  0  0  0
   26.5284    1.6551    8.5698 C   0  0  0  0  0  0  0  0  0  0  0  0
   25.6701    0.8863    9.3503 O   0  0  0  0  0  0  0  0  0  0  0  0
   27.8743    1.2992    8.6858 C   0  0  0  0  0  0  0  0  0  0  0  0
   28.8601    1.9874    7.9690 C   0  0  0  0  0  0  0  0  0  0  0  0
   30.2619    1.5263    8.2574 C   0  0  0  0  0  0  0  0  0  0  0  0
   30.8613    2.3488    9.3488 C   0  0  0  0  0  0  0  0  0  0  0  0
   31.2835    3.7241    8.9734 C   0  0  0  0  0  0  0  0  0  0  0  0
   32.4949    3.7568    8.0450 C   0  0  0  0  0  0  0  0  0  0  0  0
   33.6889    3.1726    8.7866 C   0  0  0  0  0  0  0  0  0  0  0  0
   28.4520    2.9851    7.1716 C   0  0  0  0  0  0  0  0  0  0  0  0
   27.0856    3.3495    7.0465 C   0  0  0  0  0  0  0  0  0  0  0  0
   26.8366    4.3969    6.1709 O   0  0  0  0  0  0  0  0  0  0  0  0
   23.5063    1.4526    5.7271 H   0  0  0  0  0  0  0  0  0  0  0  0
   22.4337    0.0714    6.2169 H   0  0  0  0  0  0  0  0  0  0  0  0
   21.1616    0.3706    8.4881 H   0  0  0  0  0  0  0  0  0  0  0  0
   22.5495    0.3394    9.7401 H   0  0  0  0  0  0  0  0  0  0  0  0
   22.5640   -0.7300    8.3330 H   0  0  0  0  0  0  0  0  0  0  0  0
   24.0741    2.0302    9.5603 H   0  0  0  0  0  0  0  0  0  0  0  0
   21.9182    2.5658    9.6444 H   0  0  0  0  0  0  0  0  0  0  0  0
   21.9209    3.3577    8.0353 H   0  0  0  0  0  0  0  0  0  0  0  0
   23.4191    4.3165   10.5764 H   0  0  0  0  0  0  0  0  0  0  0  0
   21.9852    5.0593    9.7435 H   0  0  0  0  0  0  0  0  0  0  0  0
   23.2738    7.1099    9.4965 H   0  0  0  0  0  0  0  0  0  0  0  0
   23.1655    6.9515    7.6880 H   0  0  0  0  0  0  0  0  0  0  0  0
   24.7735    7.0135    8.3898 H   0  0  0  0  0  0  0  0  0  0  0  0
   25.0952    5.1064    7.0899 H   0  0  0  0  0  0  0  0  0  0  0  0
   24.3728    2.8264    6.6071 H   0  0  0  0  0  0  0  0  0  0  0  0
   25.9113   -0.0557    9.6242 H   0  0  0  0  0  0  0  0  0  0  0  0
   28.1357    0.4749    9.3544 H   0  0  0  0  0  0  0  0  0  0  0  0
   30.7901    1.7011    7.3174 H   0  0  0  0  0  0  0  0  0  0  0  0
   30.2999    0.4278    8.4444 H   0  0  0  0  0  0  0  0  0  0  0  0
   31.7007    1.7392    9.7894 H   0  0  0  0  0  0  0  0  0  0  0  0
   30.1175    2.4522   10.1628 H   0  0  0  0  0  0  0  0  0  0  0  0
   31.5322    4.2575    9.9053 H   0  0  0  0  0  0  0  0  0  0  0  0
   30.4483    4.2892    8.4808 H   0  0  0  0  0  0  0  0  0  0  0  0
   32.3047    3.0623    7.1442 H   0  0  0  0  0  0  0  0  0  0  0  0
   32.7003    4.7780    7.7444 H   0  0  0  0  0  0  0  0  0  0  0  0
   33.3155    2.7834    9.7970 H   0  0  0  0  0  0  0  0  0  0  0  0
   34.3262    4.0629    9.1130 H   0  0  0  0  0  0  0  0  0  0  0  0
   34.2935    2.4787    8.2331 H   0  0  0  0  0  0  0  0  0  0  0  0
   29.2194    3.5218    6.5963 H   0  0  0  0  0  0  0  0  0  0  0  0
   27.4694    5.2106    6.1726 H   0  0  0  0  0  0  0  0  0  0  0  0
  1  2  2  0
  2  3  1  0
  2  4  1  0
  4  5  1  0
  5  6  1  0
  6  7  1  0
  7  8  1  0
  7  9  2  0
  9 10  1  0
 10 11  1  0
 11 12  2  0
 12 13  1  0
 12 14  1  0
 14 15  2  0
 15 16  1  0
 16 17  1  0
 17 18  1  0
 18 19  1  0
 19 20  1  0
 15 21  1  0
 21 22  2  0
 22 23  1  0
 10  4  1  0
 22 11  1  0
  1 24  1  0
  1 25  1  0
  3 26  1  0
  3 27  1  0
  3 28  1  0
  4 29  1  1
  5 30  1  0
  5 31  1  0
  6 32  1  0
  6 33  1  0
  8 34  1  0
  8 35  1  0
  8 36  1  0
  9 37  1  0
 10 38  1  6
 13 39  1  0
 14 40  1  0
 16 41  1  0
 16 42  1  0
 17 43  1  0
 17 44  1  0
 18 45  1  0
 18 46  1  0
 19 47  1  0
 19 48  1  0
 20 49  1  0
 20 50  1  0
 20 51  1  0
 21 52  1  0
 23 53  1  0
M  END
$$$$
