
     RDKit          3D

 49 51  0  0  0  0  0  0  0  0999 V2000
   32.4950    3.4642    3.8370 C   0  0  0  0  0  0  0  0  0  0  0  0
   32.8245    2.2777    4.7008 C   0  0  0  0  0  0  0  0  0  0  0  0
   31.9974    2.3387    5.9652 C   0  0  0  0  0  0  0  0  0  0  0  0
   30.5315    2.3109    5.5392 C   0  0  0  0  0  0  0  0  0  0  0  0
   29.6909    2.3716    6.7945 C   0  0  0  0  0  0  0  0  0  0  0  0
   28.2500    2.3475    6.4369 C   0  0  0  0  0  0  0  0  0  0  0  0
   27.6160    1.1362    6.3374 C   0  0  0  0  0  0  0  0  0  0  0  0
   26.2570    1.0734    6.0020 C   0  0  0  0  0  0  0  0  0  0  0  0
   25.7345   -0.2028    5.9334 O   0  0  0  0  0  0  0  0  0  0  0  0
   25.5750    2.2253    5.7767 C   0  0  0  0  0  0  0  0  0  0  0  0
   26.1886    3.4720    5.8695 C   0  0  0  0  0  0  0  0  0  0  0  0
   27.5380    3.5015    6.2040 C   0  0  0  0  0  0  0  0  0  0  0  0
   25.5682    4.6620    5.6577 O   0  0  0  0  0  0  0  0  0  0  0  0
   24.2128    4.7379    5.3165 C   0  0  0  0  0  0  0  0  0  0  0  0
   23.9941    5.4159    3.9783 C   0  0  0  0  0  0  0  0  0  0  0  0
   23.5557    5.5608    6.4356 C   0  0  0  0  0  0  0  0  0  0  0  0
   23.5533    3.4144    5.2161 C   0  0  0  0  0  0  0  0  0  0  0  0
   22.1987    3.4414    4.8775 C   0  0  0  0  0  0  0  0  0  0  0  0
   21.5116    2.2597    4.7633 C   0  0  0  0  0  0  0  0  0  0  0  0
   22.1021    1.0380    4.9691 C   0  0  0  0  0  0  0  0  0  0  0  0
   21.3416   -0.2332    4.8410 C   0  0  0  0  0  0  0  0  0  0  0  0
   23.4656    1.0439    5.3084 C   0  0  0  0  0  0  0  0  0  0  0  0
   24.1778    2.2141    5.4293 C   0  0  0  0  0  0  0  0  0  0  0  0
   32.1810    4.3591    4.4108 H   0  0  0  0  0  0  0  0  0  0  0  0
   31.7240    3.2203    3.0813 H   0  0  0  0  0  0  0  0  0  0  0  0
   33.4497    3.7736    3.3314 H   0  0  0  0  0  0  0  0  0  0  0  0
   33.9068    2.1697    4.8981 H   0  0  0  0  0  0  0  0  0  0  0  0
   32.4563    1.3671    4.1450 H   0  0  0  0  0  0  0  0  0  0  0  0
   32.2212    3.2553    6.5468 H   0  0  0  0  0  0  0  0  0  0  0  0
   32.2212    1.4783    6.6275 H   0  0  0  0  0  0  0  0  0  0  0  0
   30.2967    1.3403    5.0646 H   0  0  0  0  0  0  0  0  0  0  0  0
   30.3754    3.1514    4.8606 H   0  0  0  0  0  0  0  0  0  0  0  0
   29.9034    1.4661    7.3877 H   0  0  0  0  0  0  0  0  0  0  0  0
   29.9557    3.2977    7.3607 H   0  0  0  0  0  0  0  0  0  0  0  0
   28.1943    0.2312    6.5250 H   0  0  0  0  0  0  0  0  0  0  0  0
   25.9645   -0.9547    6.6006 H   0  0  0  0  0  0  0  0  0  0  0  0
   28.0486    4.4437    6.2858 H   0  0  0  0  0  0  0  0  0  0  0  0
   23.6257    4.7185    3.1947 H   0  0  0  0  0  0  0  0  0  0  0  0
   24.9415    5.8355    3.5800 H   0  0  0  0  0  0  0  0  0  0  0  0
   23.1910    6.1632    4.1205 H   0  0  0  0  0  0  0  0  0  0  0  0
   22.4922    5.7385    6.2192 H   0  0  0  0  0  0  0  0  0  0  0  0
   24.1464    6.4983    6.4942 H   0  0  0  0  0  0  0  0  0  0  0  0
   23.7390    5.0102    7.3689 H   0  0  0  0  0  0  0  0  0  0  0  0
   21.6744    4.3736    4.7020 H   0  0  0  0  0  0  0  0  0  0  0  0
   20.4650    2.2605    4.5026 H   0  0  0  0  0  0  0  0  0  0  0  0
   20.7316   -0.2384    3.9055 H   0  0  0  0  0  0  0  0  0  0  0  0
   22.0271   -1.0903    4.7570 H   0  0  0  0  0  0  0  0  0  0  0  0
   20.6230   -0.3375    5.6801 H   0  0  0  0  0  0  0  0  0  0  0  0
   23.8762    0.0647    5.4578 H   0  0  0  0  0  0  0  0  0  0  0  0
  1  2  1  0
  2  3  1  0
  3  4  1  0
  4  5  1  0
  5  6  1  0
  6  7  2  0
  7  8  1  0
  8  9  1  0
  8 10  2  0
 10 11  1  0
 11 12  2  0
 11 13  1  0
 13 14  1  0
 14 15  1  0
 14 16  1  0
 14 17  1  0
 17 18  2  0
 18 19  1  0
 19 20  2  0
 20 21  1  0
 20 22  1  0
 22 23  2  0
 12  6  1  0
 23 17  1  0
 23 10  1  0
  1 24  1  0
  1 25  1  0
  1 26  1  0
  2 27  1  0
  2 28  1  0
  3 29  1  0
  3 30  1  0
  4 31  1  0
  4 32  1  0
  5 33  1  0
  5 34  1  0
  7 35  1  0
  9 36  1  0
 12 37  1  0
 15 38  1  0
 15 39  1  0
 15 40  1  0
 16 41  1  0
 16 42  1  0
 16 43  1  0
 18 44  1  0
 19 45  1  0
 21 46  1  0
 21 47  1  0
 21 48  1  0
 22 49  1  0
M  END
$$$$
