
     RDKit          3D

 49 51  0  0  0  0  0  0  0  0999 V2000
   33.8304    3.2483    5.2450 C   0  0  0  0  0  0  0  0  0  0  0  0
   32.3132    3.4061    5.3309 C   0  0  0  0  0  0  0  0  0  0  0  0
   31.8171    2.2622    6.1581 C   0  0  0  0  0  0  0  0  0  0  0  0
   30.3151    2.2566    6.3514 C   0  0  0  0  0  0  0  0  0  0  0  0
   29.5694    2.1694    5.0649 C   0  0  0  0  0  0  0  0  0  0  0  0
   28.1184    2.1580    5.1531 C   0  0  0  0  0  0  0  0  0  0  0  0
   27.4540    0.9621    5.2669 C   0  0  0  0  0  0  0  0  0  0  0  0
   26.0584    0.9449    5.3520 C   0  0  0  0  0  0  0  0  0  0  0  0
   25.4884   -0.3040    5.4634 O   0  0  0  0  0  0  0  0  0  0  0  0
   25.3666    2.1287    5.3206 C   0  0  0  0  0  0  0  0  0  0  0  0
   26.0312    3.3290    5.2066 C   0  0  0  0  0  0  0  0  0  0  0  0
   27.4293    3.3509    5.1210 C   0  0  0  0  0  0  0  0  0  0  0  0
   25.4151    4.5636    5.1675 O   0  0  0  0  0  0  0  0  0  0  0  0
   24.0203    4.6817    5.2443 C   0  0  0  0  0  0  0  0  0  0  0  0
   23.6498    5.4781    6.4956 C   0  0  0  0  0  0  0  0  0  0  0  0
   23.5023    5.4907    4.0710 C   0  0  0  0  0  0  0  0  0  0  0  0
   23.3077    3.3855    5.3672 C   0  0  0  0  0  0  0  0  0  0  0  0
   21.9213    3.4621    5.4459 C   0  0  0  0  0  0  0  0  0  0  0  0
   21.1960    2.2990    5.5614 C   0  0  0  0  0  0  0  0  0  0  0  0
   21.7779    1.0639    5.6025 C   0  0  0  0  0  0  0  0  0  0  0  0
   20.9657   -0.1751    5.7279 C   0  0  0  0  0  0  0  0  0  0  0  0
   23.1792    1.0148    5.5211 C   0  0  0  0  0  0  0  0  0  0  0  0
   23.9255    2.1639    5.4053 C   0  0  0  0  0  0  0  0  0  0  0  0
   34.2554    2.9392    6.2173 H   0  0  0  0  0  0  0  0  0  0  0  0
   34.0794    2.4097    4.5307 H   0  0  0  0  0  0  0  0  0  0  0  0
   34.2775    4.1989    4.8901 H   0  0  0  0  0  0  0  0  0  0  0  0
   31.8645    3.3538    4.3267 H   0  0  0  0  0  0  0  0  0  0  0  0
   32.0856    4.3480    5.8438 H   0  0  0  0  0  0  0  0  0  0  0  0
   32.2612    2.3865    7.1866 H   0  0  0  0  0  0  0  0  0  0  0  0
   32.1819    1.2786    5.8090 H   0  0  0  0  0  0  0  0  0  0  0  0
   30.0637    3.2536    6.8134 H   0  0  0  0  0  0  0  0  0  0  0  0
   30.0953    1.4869    7.0792 H   0  0  0  0  0  0  0  0  0  0  0  0
   29.8915    1.2293    4.5667 H   0  0  0  0  0  0  0  0  0  0  0  0
   29.8599    2.9788    4.3658 H   0  0  0  0  0  0  0  0  0  0  0  0
   28.0285    0.0451    5.2888 H   0  0  0  0  0  0  0  0  0  0  0  0
   25.7952   -0.9004    6.2369 H   0  0  0  0  0  0  0  0  0  0  0  0
   27.9654    4.3032    5.0299 H   0  0  0  0  0  0  0  0  0  0  0  0
   24.2182    6.4472    6.5481 H   0  0  0  0  0  0  0  0  0  0  0  0
   23.8784    4.8228    7.3674 H   0  0  0  0  0  0  0  0  0  0  0  0
   22.5687    5.6857    6.4914 H   0  0  0  0  0  0  0  0  0  0  0  0
   22.4274    5.7376    4.2513 H   0  0  0  0  0  0  0  0  0  0  0  0
   23.6663    4.9660    3.1002 H   0  0  0  0  0  0  0  0  0  0  0  0
   24.0552    6.4727    4.1217 H   0  0  0  0  0  0  0  0  0  0  0  0
   21.3892    4.4066    5.4197 H   0  0  0  0  0  0  0  0  0  0  0  0
   20.1176    2.3426    5.6237 H   0  0  0  0  0  0  0  0  0  0  0  0
   20.6032   -0.2432    6.7892 H   0  0  0  0  0  0  0  0  0  0  0  0
   21.6137   -1.0644    5.5220 H   0  0  0  0  0  0  0  0  0  0  0  0
   20.0936   -0.1918    5.0663 H   0  0  0  0  0  0  0  0  0  0  0  0
   23.5802    0.0213    5.5583 H   0  0  0  0  0  0  0  0  0  0  0  0
  1  2  1  0
  2  3  1  0
  3  4  1  0
  4  5  1  0
  5  6  1  0
  6  7  2  0
  7  8  1  0
  8  9  1  0
  8 10  2  0
 10 11  1  0
 11 12  2  0
 11 13  1  0
 13 14  1  0
 14 15  1  0
 14 16  1  0
 14 17  1  0
 17 18  2  0
 18 19  1  0
 19 20  2  0
 20 21  1  0
 20 22  1  0
 22 23  2  0
 12  6  1  0
 23 17  1  0
 23 10  1  0
  1 24  1  0
  1 25  1  0
  1 26  1  0
  2 27  1  0
  2 28  1  0
  3 29  1  0
  3 30  1  0
  4 31  1  0
  4 32  1  0
  5 33  1  0
  5 34  1  0
  7 35  1  0
  9 36  1  0
 12 37  1  0
 15 38  1  0
 15 39  1  0
 15 40  1  0
 16 41  1  0
 16 42  1  0
 16 43  1  0
 18 44  1  0
 19 45  1  0
 21 46  1  0
 21 47  1  0
 21 48  1  0
 22 49  1  0
M  END
$$$$
