
     RDKit          3D

 49 51  0  0  0  0  0  0  0  0999 V2000
   33.8052    3.4164    5.6280 C   0  0  0  0  0  0  0  0  0  0  0  0
   32.2951    3.5238    5.5916 C   0  0  0  0  0  0  0  0  0  0  0  0
   31.7568    2.2142    5.0268 C   0  0  0  0  0  0  0  0  0  0  0  0
   30.2583    2.2284    4.9501 C   0  0  0  0  0  0  0  0  0  0  0  0
   29.6418    2.4243    6.3208 C   0  0  0  0  0  0  0  0  0  0  0  0
   28.1565    2.4225    6.1441 C   0  0  0  0  0  0  0  0  0  0  0  0
   27.5251    1.2053    6.2370 C   0  0  0  0  0  0  0  0  0  0  0  0
   26.1343    1.1395    6.0804 C   0  0  0  0  0  0  0  0  0  0  0  0
   25.5915   -0.1237    6.1901 O   0  0  0  0  0  0  0  0  0  0  0  0
   25.4155    2.2837    5.8369 C   0  0  0  0  0  0  0  0  0  0  0  0
   26.0952    3.4758    5.7533 C   0  0  0  0  0  0  0  0  0  0  0  0
   27.4638    3.5756    5.9025 C   0  0  0  0  0  0  0  0  0  0  0  0
   25.4017    4.6403    5.5101 O   0  0  0  0  0  0  0  0  0  0  0  0
   24.0274    4.7692    5.3286 C   0  0  0  0  0  0  0  0  0  0  0  0
   23.8078    5.4051    3.9712 C   0  0  0  0  0  0  0  0  0  0  0  0
   23.4795    5.6798    6.4103 C   0  0  0  0  0  0  0  0  0  0  0  0
   23.3310    3.4359    5.4297 C   0  0  0  0  0  0  0  0  0  0  0  0
   21.9493    3.5006    5.2563 C   0  0  0  0  0  0  0  0  0  0  0  0
   21.2749    2.3043    5.3411 C   0  0  0  0  0  0  0  0  0  0  0  0
   21.8779    1.0945    5.5799 C   0  0  0  0  0  0  0  0  0  0  0  0
   21.0807   -0.1443    5.6560 C   0  0  0  0  0  0  0  0  0  0  0  0
   23.2725    1.1002    5.7451 C   0  0  0  0  0  0  0  0  0  0  0  0
   23.9886    2.2677    5.6693 C   0  0  0  0  0  0  0  0  0  0  0  0
   34.0777    2.3570    5.8261 H   0  0  0  0  0  0  0  0  0  0  0  0
   34.2203    3.6990    4.6518 H   0  0  0  0  0  0  0  0  0  0  0  0
   34.1807    4.0404    6.4782 H   0  0  0  0  0  0  0  0  0  0  0  0
   31.9105    3.6431    6.6249 H   0  0  0  0  0  0  0  0  0  0  0  0
   31.9256    4.3885    5.0060 H   0  0  0  0  0  0  0  0  0  0  0  0
   32.1518    2.0930    3.9983 H   0  0  0  0  0  0  0  0  0  0  0  0
   32.0516    1.3557    5.6501 H   0  0  0  0  0  0  0  0  0  0  0  0
   29.9532    1.2343    4.5587 H   0  0  0  0  0  0  0  0  0  0  0  0
   29.8610    2.9747    4.2566 H   0  0  0  0  0  0  0  0  0  0  0  0
   29.8974    3.3968    6.7581 H   0  0  0  0  0  0  0  0  0  0  0  0
   29.9662    1.6413    7.0360 H   0  0  0  0  0  0  0  0  0  0  0  0
   28.1098    0.2976    6.4319 H   0  0  0  0  0  0  0  0  0  0  0  0
   25.9350   -0.7481    6.9146 H   0  0  0  0  0  0  0  0  0  0  0  0
   28.0073    4.5101    5.8383 H   0  0  0  0  0  0  0  0  0  0  0  0
   24.7305    5.7692    3.4937 H   0  0  0  0  0  0  0  0  0  0  0  0
   23.1593    6.3206    4.0891 H   0  0  0  0  0  0  0  0  0  0  0  0
   23.2680    4.7474    3.2678 H   0  0  0  0  0  0  0  0  0  0  0  0
   22.9492    5.0926    7.1999 H   0  0  0  0  0  0  0  0  0  0  0  0
   22.7463    6.3954    5.9701 H   0  0  0  0  0  0  0  0  0  0  0  0
   24.2824    6.2416    6.9418 H   0  0  0  0  0  0  0  0  0  0  0  0
   21.4353    4.4351    5.0661 H   0  0  0  0  0  0  0  0  0  0  0  0
   20.2017    2.2982    5.2142 H   0  0  0  0  0  0  0  0  0  0  0  0
   20.1511    0.0271    6.2724 H   0  0  0  0  0  0  0  0  0  0  0  0
   21.6302   -0.9873    6.0793 H   0  0  0  0  0  0  0  0  0  0  0  0
   20.6734   -0.3335    4.6228 H   0  0  0  0  0  0  0  0  0  0  0  0
   23.6880    0.1281    5.9288 H   0  0  0  0  0  0  0  0  0  0  0  0
  1  2  1  0
  2  3  1  0
  3  4  1  0
  4  5  1  0
  5  6  1  0
  6  7  2  0
  7  8  1  0
  8  9  1  0
  8 10  2  0
 10 11  1  0
 11 12  2  0
 11 13  1  0
 13 14  1  0
 14 15  1  0
 14 16  1  0
 14 17  1  0
 17 18  2  0
 18 19  1  0
 19 20  2  0
 20 21  1  0
 20 22  1  0
 22 23  2  0
 12  6  1  0
 23 17  1  0
 23 10  1  0
  1 24  1  0
  1 25  1  0
  1 26  1  0
  2 27  1  0
  2 28  1  0
  3 29  1  0
  3 30  1  0
  4 31  1  0
  4 32  1  0
  5 33  1  0
  5 34  1  0
  7 35  1  0
  9 36  1  0
 12 37  1  0
 15 38  1  0
 15 39  1  0
 15 40  1  0
 16 41  1  0
 16 42  1  0
 16 43  1  0
 18 44  1  0
 19 45  1  0
 21 46  1  0
 21 47  1  0
 21 48  1  0
 22 49  1  0
M  END
$$$$
