
     RDKit          3D

 49 51  0  0  0  0  0  0  0  0999 V2000
   32.5914    4.0962    5.0404 C   0  0  0  0  0  0  0  0  0  0  0  0
   32.8622    2.9890    6.0540 C   0  0  0  0  0  0  0  0  0  0  0  0
   32.3319    1.7226    5.4832 C   0  0  0  0  0  0  0  0  0  0  0  0
   30.8557    1.7604    5.1895 C   0  0  0  0  0  0  0  0  0  0  0  0
   30.0938    2.0175    6.4247 C   0  0  0  0  0  0  0  0  0  0  0  0
   28.6251    2.0619    6.2435 C   0  0  0  0  0  0  0  0  0  0  0  0
   27.9276    0.8865    6.3754 C   0  0  0  0  0  0  0  0  0  0  0  0
   26.5369    0.8931    6.2102 C   0  0  0  0  0  0  0  0  0  0  0  0
   25.9218   -0.3311    6.3608 O   0  0  0  0  0  0  0  0  0  0  0  0
   25.8907    2.0687    5.9198 C   0  0  0  0  0  0  0  0  0  0  0  0
   26.6247    3.2219    5.7961 C   0  0  0  0  0  0  0  0  0  0  0  0
   28.0103    3.2578    5.9530 C   0  0  0  0  0  0  0  0  0  0  0  0
   26.0050    4.4062    5.5072 O   0  0  0  0  0  0  0  0  0  0  0  0
   24.6431    4.6062    5.3102 C   0  0  0  0  0  0  0  0  0  0  0  0
   24.0480    5.5384    6.3724 C   0  0  0  0  0  0  0  0  0  0  0  0
   24.4139    5.2674    3.9807 C   0  0  0  0  0  0  0  0  0  0  0  0
   23.8715    3.3258    5.4525 C   0  0  0  0  0  0  0  0  0  0  0  0
   22.4969    3.4552    5.2668 C   0  0  0  0  0  0  0  0  0  0  0  0
   21.7546    2.3033    5.3893 C   0  0  0  0  0  0  0  0  0  0  0  0
   22.2859    1.0701    5.6767 C   0  0  0  0  0  0  0  0  0  0  0  0
   21.4329   -0.1425    5.7971 C   0  0  0  0  0  0  0  0  0  0  0  0
   23.6788    1.0043    5.8529 C   0  0  0  0  0  0  0  0  0  0  0  0
   24.4720    2.1236    5.7425 C   0  0  0  0  0  0  0  0  0  0  0  0
   33.4903    4.7506    4.9917 H   0  0  0  0  0  0  0  0  0  0  0  0
   32.4296    3.6578    4.0224 H   0  0  0  0  0  0  0  0  0  0  0  0
   31.6766    4.6427    5.2950 H   0  0  0  0  0  0  0  0  0  0  0  0
   32.3738    3.2113    7.0197 H   0  0  0  0  0  0  0  0  0  0  0  0
   33.9632    2.8741    6.1908 H   0  0  0  0  0  0  0  0  0  0  0  0
   32.5175    0.8460    6.1638 H   0  0  0  0  0  0  0  0  0  0  0  0
   32.8945    1.4744    4.5395 H   0  0  0  0  0  0  0  0  0  0  0  0
   30.6223    0.8155    4.6763 H   0  0  0  0  0  0  0  0  0  0  0  0
   30.7172    2.6449    4.5080 H   0  0  0  0  0  0  0  0  0  0  0  0
   30.3919    3.0213    6.8411 H   0  0  0  0  0  0  0  0  0  0  0  0
   30.3154    1.2683    7.2094 H   0  0  0  0  0  0  0  0  0  0  0  0
   28.4583   -0.0275    6.6046 H   0  0  0  0  0  0  0  0  0  0  0  0
   26.1519   -1.1629    5.8715 H   0  0  0  0  0  0  0  0  0  0  0  0
   28.5636    4.1831    5.8496 H   0  0  0  0  0  0  0  0  0  0  0  0
   24.6461    5.3979    7.2810 H   0  0  0  0  0  0  0  0  0  0  0  0
   24.0300    6.5700    5.9919 H   0  0  0  0  0  0  0  0  0  0  0  0
   22.9998    5.2514    6.6152 H   0  0  0  0  0  0  0  0  0  0  0  0
   25.1014    4.9379    3.1871 H   0  0  0  0  0  0  0  0  0  0  0  0
   23.3743    5.2505    3.6235 H   0  0  0  0  0  0  0  0  0  0  0  0
   24.6398    6.3591    4.1532 H   0  0  0  0  0  0  0  0  0  0  0  0
   22.0227    4.3950    5.0397 H   0  0  0  0  0  0  0  0  0  0  0  0
   20.6842    2.3539    5.2538 H   0  0  0  0  0  0  0  0  0  0  0  0
   21.3672   -0.7178    4.8590 H   0  0  0  0  0  0  0  0  0  0  0  0
   21.8188   -0.8111    6.5927 H   0  0  0  0  0  0  0  0  0  0  0  0
   20.4087    0.1613    6.0854 H   0  0  0  0  0  0  0  0  0  0  0  0
   24.0370    0.0174    6.0750 H   0  0  0  0  0  0  0  0  0  0  0  0
  1  2  1  0
  2  3  1  0
  3  4  1  0
  4  5  1  0
  5  6  1  0
  6  7  2  0
  7  8  1  0
  8  9  1  0
  8 10  2  0
 10 11  1  0
 11 12  2  0
 11 13  1  0
 13 14  1  0
 14 15  1  0
 14 16  1  0
 14 17  1  0
 17 18  2  0
 18 19  1  0
 19 20  2  0
 20 21  1  0
 20 22  1  0
 22 23  2  0
 12  6  1  0
 23 17  1  0
 23 10  1  0
  1 24  1  0
  1 25  1  0
  1 26  1  0
  2 27  1  0
  2 28  1  0
  3 29  1  0
  3 30  1  0
  4 31  1  0
  4 32  1  0
  5 33  1  0
  5 34  1  0
  7 35  1  0
  9 36  1  0
 12 37  1  0
 15 38  1  0
 15 39  1  0
 15 40  1  0
 16 41  1  0
 16 42  1  0
 16 43  1  0
 18 44  1  0
 19 45  1  0
 21 46  1  0
 21 47  1  0
 21 48  1  0
 22 49  1  0
M  END
$$$$
