
     RDKit          3D

 49 51  0  0  0  0  0  0  0  0999 V2000
   32.6269    4.2249    5.0609 C   0  0  0  0  0  0  0  0  0  0  0  0
   32.8851    3.0524    5.9648 C   0  0  0  0  0  0  0  0  0  0  0  0
   32.2915    1.7882    5.4383 C   0  0  0  0  0  0  0  0  0  0  0  0
   30.7973    1.8365    5.2613 C   0  0  0  0  0  0  0  0  0  0  0  0
   30.0282    2.1057    6.5119 C   0  0  0  0  0  0  0  0  0  0  0  0
   28.5672    2.1464    6.3025 C   0  0  0  0  0  0  0  0  0  0  0  0
   27.8596    0.9768    6.4257 C   0  0  0  0  0  0  0  0  0  0  0  0
   26.4790    0.9668    6.2369 C   0  0  0  0  0  0  0  0  0  0  0  0
   25.8602   -0.2534    6.3819 O   0  0  0  0  0  0  0  0  0  0  0  0
   25.8443    2.1420    5.9274 C   0  0  0  0  0  0  0  0  0  0  0  0
   26.5771    3.2908    5.8117 C   0  0  0  0  0  0  0  0  0  0  0  0
   27.9578    3.3383    5.9934 C   0  0  0  0  0  0  0  0  0  0  0  0
   25.9635    4.4904    5.5005 O   0  0  0  0  0  0  0  0  0  0  0  0
   24.6001    4.6879    5.2749 C   0  0  0  0  0  0  0  0  0  0  0  0
   24.3936    5.3268    3.9221 C   0  0  0  0  0  0  0  0  0  0  0  0
   24.0933    5.6041    6.3682 C   0  0  0  0  0  0  0  0  0  0  0  0
   23.8627    3.4182    5.4128 C   0  0  0  0  0  0  0  0  0  0  0  0
   22.4894    3.4749    5.2125 C   0  0  0  0  0  0  0  0  0  0  0  0
   21.6944    2.3569    5.3138 C   0  0  0  0  0  0  0  0  0  0  0  0
   22.2386    1.1480    5.6171 C   0  0  0  0  0  0  0  0  0  0  0  0
   21.3808   -0.0546    5.7257 C   0  0  0  0  0  0  0  0  0  0  0  0
   23.6282    1.0856    5.8208 C   0  0  0  0  0  0  0  0  0  0  0  0
   24.4232    2.2051    5.7193 C   0  0  0  0  0  0  0  0  0  0  0  0
   33.3226    4.1909    4.1791 H   0  0  0  0  0  0  0  0  0  0  0  0
   31.6085    4.2146    4.6773 H   0  0  0  0  0  0  0  0  0  0  0  0
   32.8478    5.1404    5.6739 H   0  0  0  0  0  0  0  0  0  0  0  0
   32.5697    3.2988    6.9945 H   0  0  0  0  0  0  0  0  0  0  0  0
   33.9816    2.8976    6.0242 H   0  0  0  0  0  0  0  0  0  0  0  0
   32.6184    0.9150    6.0143 H   0  0  0  0  0  0  0  0  0  0  0  0
   32.7041    1.6547    4.3991 H   0  0  0  0  0  0  0  0  0  0  0  0
   30.4835    2.5264    4.4643 H   0  0  0  0  0  0  0  0  0  0  0  0
   30.5039    0.8099    4.9022 H   0  0  0  0  0  0  0  0  0  0  0  0
   30.2308    1.3263    7.2862 H   0  0  0  0  0  0  0  0  0  0  0  0
   30.3426    3.1157    6.8656 H   0  0  0  0  0  0  0  0  0  0  0  0
   28.3948    0.0500    6.6745 H   0  0  0  0  0  0  0  0  0  0  0  0
   26.1916   -1.1379    6.0808 H   0  0  0  0  0  0  0  0  0  0  0  0
   28.5367    4.2320    5.9045 H   0  0  0  0  0  0  0  0  0  0  0  0
   24.9401    6.3089    3.9809 H   0  0  0  0  0  0  0  0  0  0  0  0
   23.3459    5.5741    3.7584 H   0  0  0  0  0  0  0  0  0  0  0  0
   24.8862    4.7566    3.1327 H   0  0  0  0  0  0  0  0  0  0  0  0
   23.0147    5.8388    6.2536 H   0  0  0  0  0  0  0  0  0  0  0  0
   24.2427    5.0657    7.3346 H   0  0  0  0  0  0  0  0  0  0  0  0
   24.6434    6.5462    6.4537 H   0  0  0  0  0  0  0  0  0  0  0  0
   21.9997    4.4053    4.9692 H   0  0  0  0  0  0  0  0  0  0  0  0
   20.6439    2.4270    5.1554 H   0  0  0  0  0  0  0  0  0  0  0  0
   21.9368   -0.8253    6.3108 H   0  0  0  0  0  0  0  0  0  0  0  0
   21.2845   -0.4846    4.6864 H   0  0  0  0  0  0  0  0  0  0  0  0
   20.3909    0.1902    6.1603 H   0  0  0  0  0  0  0  0  0  0  0  0
   23.9816    0.0996    6.0558 H   0  0  0  0  0  0  0  0  0  0  0  0
  1  2  1  0
  2  3  1  0
  3  4  1  0
  4  5  1  0
  5  6  1  0
  6  7  2  0
  7  8  1  0
  8  9  1  0
  8 10  2  0
 10 11  1  0
 11 12  2  0
 11 13  1  0
 13 14  1  0
 14 15  1  0
 14 16  1  0
 14 17  1  0
 17 18  2  0
 18 19  1  0
 19 20  2  0
 20 21  1  0
 20 22  1  0
 22 23  2  0
 12  6  1  0
 23 17  1  0
 23 10  1  0
  1 24  1  0
  1 25  1  0
  1 26  1  0
  2 27  1  0
  2 28  1  0
  3 29  1  0
  3 30  1  0
  4 31  1  0
  4 32  1  0
  5 33  1  0
  5 34  1  0
  7 35  1  0
  9 36  1  0
 12 37  1  0
 15 38  1  0
 15 39  1  0
 15 40  1  0
 16 41  1  0
 16 42  1  0
 16 43  1  0
 18 44  1  0
 19 45  1  0
 21 46  1  0
 21 47  1  0
 21 48  1  0
 22 49  1  0
M  END
$$$$
