
     RDKit          3D

 23 25  0  0  0  0  0  0  0  0999 V2000
   -3.3360  -10.8320    3.8620 C   0  0  0  0  0  0  0  0  0  0  0  0
   -3.9010  -11.3780    2.9130 C   0  0  0  0  0  0  0  0  0  0  0  0
   -4.3590  -11.8520    1.8910 C   0  0  0  0  0  0  0  0  0  0  0  0
   -4.3340  -12.1890    0.5480 C   0  0  0  0  0  0  0  0  0  0  0  0
   -3.3940  -11.3310   -0.1790 C   0  0  0  0  0  0  0  0  0  0  0  0
   -3.8620   -9.9100   -0.3140 C   0  0  0  0  0  0  0  0  0  0  0  0
   -4.3250   -9.4780   -1.5740 C   0  0  0  0  0  0  0  0  0  0  0  0
   -4.7240   -8.1580   -1.7210 C   0  0  0  0  0  0  0  0  0  0  0  0
   -5.1720   -7.7940   -2.9100 O   0  0  0  0  0  0  0  0  0  0  0  0
   -4.6750   -7.2340   -0.6650 C   0  0  0  0  0  0  0  0  0  0  0  0
   -4.2340   -7.7160    0.5900 C   0  0  0  0  0  0  0  0  0  0  0  0
   -3.8220   -9.0190    0.7520 C   0  0  0  0  0  0  0  0  0  0  0  0
   -4.2190   -6.8780    1.6560 O   0  0  0  0  0  0  0  0  0  0  0  0
   -4.0540   -5.4720    1.5250 C   0  0  1  0  0  0  0  0  0  0  0  0
   -4.5900   -4.9070    2.7980 C   0  0  0  0  0  0  0  0  0  0  0  0
   -2.5770   -5.1770    1.3510 C   0  0  0  0  0  0  0  0  0  0  0  0
   -4.7820   -4.9470    0.3160 C   0  0  1  0  0  0  0  0  0  0  0  0
   -5.0750   -3.5630    0.2060 C   0  0  0  0  0  0  0  0  0  0  0  0
   -5.6580   -3.0470   -0.9380 C   0  0  0  0  0  0  0  0  0  0  0  0
   -5.9220   -3.9020   -2.0110 C   0  0  0  0  0  0  0  0  0  0  0  0
   -6.5180   -3.3360   -3.2580 C   0  0  0  0  0  0  0  0  0  0  0  0
   -5.6250   -5.2720   -1.9460 C   0  0  0  0  0  0  0  0  0  0  0  0
   -5.0440   -5.8000   -0.7950 C   0  0  0  0  0  0  0  0  0  0  0  0
  2  1  1  0
  3  2  1  0
  4  3  1  0
  5  4  1  0
  6  5  1  0
  7  6  1  0
  8  7  1  0
  9  8  1  0
 10  8  1  0
 11 10  1  0
 12 11  1  0
 12  6  1  0
 13 11  1  0
 14 13  1  0
 14 15  1  1
 16 14  1  0
 17 14  1  0
 17 18  1  6
 19 18  1  0
 20 19  1  0
 21 20  1  0
 22 20  1  0
 23 22  1  0
 23 10  1  0
 23 17  1  0
M  END
$$$$
