
     RDKit          3D

 29 30  0  0  0  0  0  0  0  0999 V2000
   -8.9560    5.6140    2.7140 C   0  0  0  0  0  0  0  0  0  0  0  0
   -7.7700    5.1250    3.5850 C   0  0  2  0  0  0  0  0  0  0  0  0
   -8.2410    4.8880    4.8770 O   0  0  0  0  0  0  0  0  0  0  0  0
   -6.6850    6.2140    3.6380 C   0  0  0  0  0  0  0  0  0  0  0  0
   -5.3720    5.9240    4.7330 S   0  0  1  0  0  0  0  0  0  0  0  0
   -5.6090    6.7490    5.9280 O   0  0  0  0  0  0  0  0  0  0  0  0
   -5.1720    4.5490    4.9850 O   0  0  0  0  0  0  0  0  0  0  0  0
   -3.9570    6.5260    3.9570 C   0  0  2  0  0  0  0  0  0  0  0  0
   -3.7480    7.8810    3.9080 C   0  0  0  0  0  0  0  0  0  0  0  0
   -2.6520    8.3820    3.2520 C   0  0  0  0  0  0  0  0  0  0  0  0
   -1.7720    7.5270    2.6430 C   0  0  0  0  0  0  0  0  0  0  0  0
   -0.7000    8.0320    1.9930 F   0  0  0  0  0  0  0  0  0  0  0  0
   -1.9610    6.1700    2.6730 C   0  0  0  0  0  0  0  0  0  0  0  0
   -3.0720    5.6490    3.3270 C   0  0  0  0  0  0  0  0  0  0  0  0
   -7.1760    3.8560    2.9650 C   0  0  1  0  0  0  0  0  0  0  0  0
   -6.7640    3.8500    1.8070 O   0  0  0  0  0  0  0  0  0  0  0  0
   -7.0950    2.8200    3.7940 N   0  0  0  0  0  0  0  0  0  0  0  0
   -6.5430    1.5580    3.5450 C   0  0  0  0  0  0  0  0  0  0  0  0
   -6.2130    0.7690    4.6170 C   0  0  0  0  0  0  0  0  0  0  0  0
   -5.6630   -0.4630    4.4510 C   0  0  0  0  0  0  0  0  0  0  0  0
   -5.4120   -0.9240    3.1710 C   0  0  0  0  0  0  0  0  0  0  0  0
   -4.8400   -2.1890    3.0460 C   0  0  0  0  0  0  0  0  0  0  0  0
   -4.3740   -3.1850    3.0440 N   0  0  0  0  0  0  0  0  0  0  0  0
   -5.7480   -0.1310    2.0290 C   0  0  2  0  0  0  0  0  0  0  0  0
   -5.4720   -0.5490    0.5860 C   0  0  2  0  0  0  0  0  0  0  0  0
   -5.5620   -1.8410    0.4230 F   0  0  0  0  0  0  0  0  0  0  0  0
   -4.2570   -0.1580    0.2330 F   0  0  0  0  0  0  0  0  0  0  0  0
   -6.3450    0.0380   -0.2340 F   0  0  0  0  0  0  0  0  0  0  0  0
   -6.3000    1.1140    2.2490 C   0  0  0  0  0  0  0  0  0  0  0  0
  2  1  1  6
  3  2  1  0
  4  2  1  0
  5  4  1  0
  5  6  1  1
  7  5  1  0
  8  5  1  0
  8  9  1  6
 10  9  1  0
 11 10  1  0
 12 11  1  0
 13 11  1  0
 14 13  1  0
 14  8  1  0
 15  2  1  0
 15 16  1  1
 17 15  1  0
 18 17  1  0
 19 18  1  0
 20 19  1  0
 21 20  1  0
 22 21  1  0
 23 22  1  0
 24 21  1  0
 25 24  1  0
 25 26  1  1
 27 25  1  0
 28 25  1  0
 24 29  1  1
 29 18  1  0
M  END
$$$$
