
     RDKit          3D

 21 24  0  0  0  0  0  0  0  0999 V2000
    0.6220    4.1150  -10.9360 C   0  0  0  0  0  0  0  0  0  0  0  0
    1.9860    4.8800  -10.9260 C   0  0  2  0  0  0  0  0  0  0  0  0
    3.1330    3.9030  -10.9550 C   0  0  0  0  0  0  0  0  0  0  0  0
    3.2000    3.1430   -9.6390 C   0  0  0  0  0  0  0  0  0  0  0  0
    3.2520    4.0290   -8.4120 C   0  0  1  0  0  0  0  0  0  0  0  0
    2.1120    5.0420   -8.4100 C   0  0  1  0  0  0  0  0  0  0  0  0
    2.2370    5.9640   -7.2020 C   0  0  0  0  0  0  0  0  0  0  0  0
    2.3350    5.1960   -5.8630 C   0  0  0  0  0  0  0  0  0  0  0  0
    3.4780    4.2040   -5.9290 C   0  0  1  0  0  0  0  0  0  0  0  0
    3.7320    3.5170   -4.5860 C   0  0  0  0  0  0  0  0  0  0  0  0
    4.8910    2.6310   -4.6640 C   0  0  0  0  0  0  0  0  0  0  0  0
    5.8040    2.6390   -3.7810 O   0  0  0  0  0  0  0  0  0  0  0  0
    4.9460    1.6960   -5.7930 C   0  0  0  0  0  0  0  0  0  0  0  0
    4.6460    2.3710   -7.1180 C   0  0  0  0  0  0  0  0  0  0  0  0
    3.3580    3.2330   -7.0880 C   0  0  2  0  0  0  0  0  0  0  0  0
    2.1230    2.2670   -6.9100 C   0  0  0  0  0  0  0  0  0  0  0  0
    2.1460    5.8030   -9.6990 C   0  0  2  0  0  0  0  0  0  0  0  0
    1.1080    6.8980   -9.9200 C   0  0  0  0  0  0  0  0  0  0  0  0
    1.1530    7.1190  -11.4350 C   0  0  0  0  0  0  0  0  0  0  0  0
    1.9930    5.9600  -12.0250 C   0  0  2  0  0  0  0  0  0  0  0  0
    1.5790    5.5630  -13.2780 O   0  0  0  0  0  0  0  0  0  0  0  0
  2  1  1  1
  3  2  1  0
  4  3  1  0
  5  4  1  6
  6  5  1  0
  6  7  1  1
  8  7  1  0
  9  8  1  1
 10  9  1  0
 11 10  1  0
 12 11  1  0
 13 11  1  0
 14 13  1  0
 15 14  1  0
 15  9  1  0
 15  5  1  0
 15 16  1  1
 17  2  1  0
 17  6  1  0
 17 18  1  1
 19 18  1  0
 20  2  1  0
 20 19  1  0
 20 21  1  6
M  END
$$$$
