
     RDKit          3D

 53 55  0  0  0  0  0  0  0  0999 V2000
   32.7239    3.7703    5.3409 C   0  0  0  0  0  0  0  0  0  0  0  0
   31.5641    2.9837    4.7740 C   0  0  0  0  0  0  0  0  0  0  0  0
   31.5343    1.6130    5.4159 C   0  0  0  0  0  0  0  0  0  0  0  0
   30.8328    0.6374    4.5321 C   0  0  0  0  0  0  0  0  0  0  0  0
   29.5874    1.0902    3.9370 C   0  0  0  0  0  0  0  0  0  0  0  0
   28.3898    1.3686    4.7372 C   0  0  0  0  0  0  0  0  0  0  0  0
   27.7360    0.2445    5.3247 C   0  0  0  0  0  0  0  0  0  0  0  0
   26.3848    0.5093    5.6349 C   0  0  0  0  0  0  0  0  0  0  0  0
   25.7278   -0.6041    6.2152 O   0  0  0  0  0  0  0  0  0  0  0  0
   25.7391    1.6486    5.4161 C   0  0  0  0  0  0  0  0  0  0  0  0
   26.4458    2.6974    4.9284 C   0  0  0  0  0  0  0  0  0  0  0  0
   27.7479    2.5182    4.6110 C   0  0  0  0  0  0  0  0  0  0  0  0
   25.8671    3.9202    4.8196 O   0  0  0  0  0  0  0  0  0  0  0  0
   24.5141    4.1843    5.1100 C   0  0  0  0  0  0  0  0  0  0  0  0
   24.1285    4.6422    6.4081 C   0  0  0  0  0  0  0  0  0  0  0  0
   24.1793    5.3008    4.0469 C   0  0  0  0  0  0  0  0  0  0  0  0
   23.8321    3.0141    4.5477 C   0  0  2  0  0  0  0  0  0  0  0  0
   22.3626    2.9665    4.5157 C   0  0  0  0  0  0  0  0  0  0  0  0
   21.6802    2.2723    5.6919 C   0  0  0  0  0  0  0  0  0  0  0  0
   22.0918    0.8591    5.1131 C   0  0  0  0  0  0  0  0  0  0  0  0
   21.0549   -0.0692    4.6518 C   0  0  0  0  0  0  0  0  0  0  0  0
   23.3985    0.6983    5.0439 C   0  0  0  0  0  0  0  0  0  0  0  0
   24.2838    1.7587    5.4791 C   0  0  1  0  0  0  0  0  0  0  0  0
   32.5925    4.8261    5.1239 H   0  0  0  0  0  0  0  0  0  0  0  0
   33.6662    3.4361    4.7824 H   0  0  0  0  0  0  0  0  0  0  0  0
   32.9400    3.6038    6.3878 H   0  0  0  0  0  0  0  0  0  0  0  0
   30.6582    3.5264    5.2487 H   0  0  0  0  0  0  0  0  0  0  0  0
   31.5252    3.0447    3.7186 H   0  0  0  0  0  0  0  0  0  0  0  0
   32.6174    1.2936    5.4447 H   0  0  0  0  0  0  0  0  0  0  0  0
   31.1404    1.6263    6.4150 H   0  0  0  0  0  0  0  0  0  0  0  0
   31.4897    0.1534    3.7834 H   0  0  0  0  0  0  0  0  0  0  0  0
   30.5221   -0.2251    5.2270 H   0  0  0  0  0  0  0  0  0  0  0  0
   29.3074    0.3516    3.1136 H   0  0  0  0  0  0  0  0  0  0  0  0
   29.8047    2.0181    3.2564 H   0  0  0  0  0  0  0  0  0  0  0  0
   28.2883   -0.6186    5.5127 H   0  0  0  0  0  0  0  0  0  0  0  0
   24.9276   -1.0723    6.1613 H   0  0  0  0  0  0  0  0  0  0  0  0
   28.2929    3.3876    4.1772 H   0  0  0  0  0  0  0  0  0  0  0  0
   22.9877    4.7474    6.5027 H   0  0  0  0  0  0  0  0  0  0  0  0
   24.4967    5.6770    6.6001 H   0  0  0  0  0  0  0  0  0  0  0  0
   24.5119    3.9954    7.2489 H   0  0  0  0  0  0  0  0  0  0  0  0
   23.3776    4.9517    3.3832 H   0  0  0  0  0  0  0  0  0  0  0  0
   23.9340    6.2197    4.5673 H   0  0  0  0  0  0  0  0  0  0  0  0
   25.0714    5.5015    3.4112 H   0  0  0  0  0  0  0  0  0  0  0  0
   24.2530    2.6892    3.6052 H   0  0  0  0  0  0  0  0  0  0  0  0
   21.9735    4.0758    4.6255 H   0  0  0  0  0  0  0  0  0  0  0  0
   21.9751    2.6549    3.5668 H   0  0  0  0  0  0  0  0  0  0  0  0
   20.5810    2.3670    5.4813 H   0  0  0  0  0  0  0  0  0  0  0  0
   22.0641    2.4963    6.6086 H   0  0  0  0  0  0  0  0  0  0  0  0
   20.7170    0.3818    3.6455 H   0  0  0  0  0  0  0  0  0  0  0  0
   20.1475    0.0096    5.2819 H   0  0  0  0  0  0  0  0  0  0  0  0
   21.3592   -1.1054    4.5378 H   0  0  0  0  0  0  0  0  0  0  0  0
   23.7395   -0.1909    4.4631 H   0  0  0  0  0  0  0  0  0  0  0  0
   24.0325    2.0387    6.5728 H   0  0  0  0  0  0  0  0  0  0  0  0
  1  2  1  0
  2  3  1  0
  3  4  1  0
  4  5  1  0
  5  6  1  0
  6  7  2  0
  7  8  1  0
  8  9  1  0
  8 10  2  0
 10 11  1  0
 11 12  2  0
 11 13  1  0
 13 14  1  0
 14 15  1  0
 14 16  1  0
 14 17  1  0
 17 18  1  0
 18 19  1  0
 19 20  1  0
 20 21  1  0
 20 22  2  0
 22 23  1  0
 12  6  1  0
 23 17  1  0
 23 10  1  0
  1 24  1  0
  1 25  1  0
  1 26  1  0
  2 27  1  0
  2 28  1  0
  3 29  1  0
  3 30  1  0
  4 31  1  0
  4 32  1  0
  5 33  1  0
  5 34  1  0
  7 35  1  0
  9 36  1  0
 12 37  1  0
 15 38  1  0
 15 39  1  0
 15 40  1  0
 16 41  1  0
 16 42  1  0
 16 43  1  0
 17 44  1  6
 18 45  1  0
 18 46  1  0
 19 47  1  0
 19 48  1  0
 21 49  1  0
 21 50  1  0
 21 51  1  0
 22 52  1  0
 23 53  1  1
M  END
$$$$
