
     RDKit          3D

 53 55  0  0  0  0  0  0  0  0999 V2000
   32.5292    3.4329    6.7233 C   0  0  0  0  0  0  0  0  0  0  0  0
   32.1543    2.2008    5.9727 C   0  0  0  0  0  0  0  0  0  0  0  0
   30.8630    2.4255    5.2598 C   0  0  0  0  0  0  0  0  0  0  0  0
   30.5586    1.1543    4.5363 C   0  0  0  0  0  0  0  0  0  0  0  0
   29.3432    1.1783    3.7455 C   0  0  0  0  0  0  0  0  0  0  0  0
   28.0963    1.4737    4.4311 C   0  0  0  0  0  0  0  0  0  0  0  0
   27.5555    0.4747    5.2383 C   0  0  0  0  0  0  0  0  0  0  0  0
   26.3032    0.6690    5.8001 C   0  0  0  0  0  0  0  0  0  0  0  0
   25.6902   -0.2257    6.6254 O   0  0  0  0  0  0  0  0  0  0  0  0
   25.5854    1.8488    5.5527 C   0  0  0  0  0  0  0  0  0  0  0  0
   26.1322    2.8540    4.7619 C   0  0  0  0  0  0  0  0  0  0  0  0
   27.3989    2.6663    4.1900 C   0  0  0  0  0  0  0  0  0  0  0  0
   25.5365    4.0919    4.5039 O   0  0  0  0  0  0  0  0  0  0  0  0
   24.2577    4.3922    5.0776 C   0  0  0  0  0  0  0  0  0  0  0  0
   23.5289    4.8663    3.6823 C   0  0  0  0  0  0  0  0  0  0  0  0
   24.1900    5.6049    5.8781 C   0  0  0  0  0  0  0  0  0  0  0  0
   23.5692    3.1423    5.3996 C   0  0  2  0  0  0  0  0  0  0  0  0
   22.2067    3.4015    6.0139 C   0  0  0  0  0  0  0  0  0  0  0  0
   21.4882    2.1516    6.3563 C   0  0  0  0  0  0  0  0  0  0  0  0
   22.1049    0.9304    5.8084 C   0  0  0  0  0  0  0  0  0  0  0  0
   21.2391   -0.1985    5.2743 C   0  0  0  0  0  0  0  0  0  0  0  0
   23.4025    0.8472    5.7145 C   0  0  0  0  0  0  0  0  0  0  0  0
   24.2740    2.0886    6.1981 C   0  0  1  0  0  0  0  0  0  0  0  0
   32.8340    4.1763    5.9598 H   0  0  0  0  0  0  0  0  0  0  0  0
   31.6741    3.8112    7.3084 H   0  0  0  0  0  0  0  0  0  0  0  0
   33.3685    3.2099    7.4319 H   0  0  0  0  0  0  0  0  0  0  0  0
   32.1166    1.2662    6.6029 H   0  0  0  0  0  0  0  0  0  0  0  0
   32.8971    2.0334    5.1469 H   0  0  0  0  0  0  0  0  0  0  0  0
   30.9648    3.2127    4.4376 H   0  0  0  0  0  0  0  0  0  0  0  0
   30.0120    2.7164    5.9429 H   0  0  0  0  0  0  0  0  0  0  0  0
   30.5304    0.2433    5.2153 H   0  0  0  0  0  0  0  0  0  0  0  0
   31.4063    0.9826    3.8083 H   0  0  0  0  0  0  0  0  0  0  0  0
   29.2495    0.1838    3.2002 H   0  0  0  0  0  0  0  0  0  0  0  0
   29.3803    1.9038    2.8636 H   0  0  0  0  0  0  0  0  0  0  0  0
   28.0948   -0.4261    5.4312 H   0  0  0  0  0  0  0  0  0  0  0  0
   25.9202   -1.2170    6.6425 H   0  0  0  0  0  0  0  0  0  0  0  0
   27.8693    3.4151    3.5518 H   0  0  0  0  0  0  0  0  0  0  0  0
   24.1465    5.6974    3.4175 H   0  0  0  0  0  0  0  0  0  0  0  0
   23.7137    3.9711    3.0143 H   0  0  0  0  0  0  0  0  0  0  0  0
   22.4999    5.0669    3.9228 H   0  0  0  0  0  0  0  0  0  0  0  0
   23.2580    6.2484    5.7010 H   0  0  0  0  0  0  0  0  0  0  0  0
   24.9942    6.3313    5.4520 H   0  0  0  0  0  0  0  0  0  0  0  0
   24.3019    5.5127    7.0103 H   0  0  0  0  0  0  0  0  0  0  0  0
   23.3485    2.6655    4.3874 H   0  0  0  0  0  0  0  0  0  0  0  0
   21.5591    4.0449    5.3765 H   0  0  0  0  0  0  0  0  0  0  0  0
   22.3906    3.9608    6.9758 H   0  0  0  0  0  0  0  0  0  0  0  0
   20.4455    2.2289    6.1082 H   0  0  0  0  0  0  0  0  0  0  0  0
   21.4575    1.9528    7.4987 H   0  0  0  0  0  0  0  0  0  0  0  0
   21.8361   -1.0045    4.8085 H   0  0  0  0  0  0  0  0  0  0  0  0
   20.4504   -0.4852    5.9682 H   0  0  0  0  0  0  0  0  0  0  0  0
   20.7195    0.3123    4.3944 H   0  0  0  0  0  0  0  0  0  0  0  0
   23.9116   -0.0113    5.3260 H   0  0  0  0  0  0  0  0  0  0  0  0
   24.2341    2.0822    7.2263 H   0  0  0  0  0  0  0  0  0  0  0  0
  1  2  1  0
  2  3  1  0
  3  4  1  0
  4  5  1  0
  5  6  1  0
  6  7  2  0
  7  8  1  0
  8  9  1  0
  8 10  2  0
 10 11  1  0
 11 12  2  0
 11 13  1  0
 13 14  1  0
 14 15  1  0
 14 16  1  0
 14 17  1  0
 17 18  1  0
 18 19  1  0
 19 20  1  0
 20 21  1  0
 20 22  2  0
 22 23  1  0
 12  6  1  0
 23 17  1  0
 23 10  1  0
  1 24  1  0
  1 25  1  0
  1 26  1  0
  2 27  1  0
  2 28  1  0
  3 29  1  0
  3 30  1  0
  4 31  1  0
  4 32  1  0
  5 33  1  0
  5 34  1  0
  7 35  1  0
  9 36  1  0
 12 37  1  0
 15 38  1  0
 15 39  1  0
 15 40  1  0
 16 41  1  0
 16 42  1  0
 16 43  1  0
 17 44  1  6
 18 45  1  0
 18 46  1  0
 19 47  1  0
 19 48  1  0
 21 49  1  0
 21 50  1  0
 21 51  1  0
 22 52  1  0
 23 53  1  1
M  END
$$$$
