
     RDKit          3D

 68 70  0  0  0  0  0  0  0  0999 V2000
   33.6411    0.4742    3.5562 C   0  0  0  0  0  0  0  0  0  0  0  0
   33.2791    1.4650    4.6822 C   0  0  0  0  0  0  0  0  0  0  0  0
   31.8166    1.7660    4.5285 C   0  0  0  0  0  0  0  0  0  0  0  0
   31.2806    2.7690    5.5059 C   0  0  0  0  0  0  0  0  0  0  0  0
   29.7913    2.9875    5.1388 C   0  0  0  0  0  0  0  0  0  0  0  0
   29.2012    4.0374    6.0137 C   0  0  0  0  0  0  0  0  0  0  0  0
   27.8738    4.5721    5.7535 C   0  0  0  0  0  0  0  0  0  0  0  0
   27.6843    5.7104    6.8136 C   0  0  0  0  0  0  0  0  0  0  0  0
   27.8331    5.2904    4.3914 C   0  0  0  0  0  0  0  0  0  0  0  0
   26.6476    3.7716    5.7809 C   0  0  0  0  0  0  0  0  0  0  0  0
   26.4414    2.4610    5.9652 C   0  0  0  0  0  0  0  0  0  0  0  0
   25.1414    1.9068    5.9809 C   0  0  0  0  0  0  0  0  0  0  0  0
   25.0849    0.4617    6.2664 C   0  0  0  0  0  0  0  0  0  0  0  0
   24.0420    2.6915    5.8047 C   0  0  0  0  0  0  0  0  0  0  0  0
   24.2200    4.0410    5.6339 C   0  0  0  0  0  0  0  0  0  0  0  0
   25.4762    4.5793    5.6131 C   0  0  0  0  0  0  0  0  0  0  0  0
   23.1905    5.0084    5.5457 O   0  0  0  0  0  0  0  0  0  0  0  0
   21.8095    4.6147    5.7478 C   0  0  0  0  0  0  0  0  0  0  0  0
   21.4280    4.7313    7.1879 C   0  0  0  0  0  0  0  0  0  0  0  0
   21.0304    5.5841    4.8899 C   0  0  0  0  0  0  0  0  0  0  0  0
   21.7300    3.2661    5.1897 C   0  0  2  0  0  0  0  0  0  0  0  0
   20.2701    2.7899    5.4088 C   0  0  0  0  0  0  0  0  0  0  0  0
   20.0988    1.4321    4.9187 C   0  0  0  0  0  0  0  0  0  0  0  0
   21.1119    0.6597    4.6124 C   0  0  0  0  0  0  0  0  0  0  0  0
   20.8174   -0.7068    4.1223 C   0  0  0  0  0  0  0  0  0  0  0  0
   19.4303   -0.8938    4.0914 O   0  0  0  0  0  0  0  0  0  0  0  0
   22.5170    1.1064    4.6701 C   0  0  0  0  0  0  0  0  0  0  0  0
   22.6259    2.1995    5.7563 C   0  0  1  0  0  0  0  0  0  0  0  0
   34.7446    0.2641    3.5973 H   0  0  0  0  0  0  0  0  0  0  0  0
   33.0572   -0.4396    3.7617 H   0  0  0  0  0  0  0  0  0  0  0  0
   33.3407    0.9481    2.6118 H   0  0  0  0  0  0  0  0  0  0  0  0
   33.4424    0.9695    5.6395 H   0  0  0  0  0  0  0  0  0  0  0  0
   33.8494    2.3919    4.5551 H   0  0  0  0  0  0  0  0  0  0  0  0
   31.6731    2.1880    3.5124 H   0  0  0  0  0  0  0  0  0  0  0  0
   31.2523    0.8032    4.6769 H   0  0  0  0  0  0  0  0  0  0  0  0
   31.3675    2.3391    6.5170 H   0  0  0  0  0  0  0  0  0  0  0  0
   31.7612    3.7600    5.4358 H   0  0  0  0  0  0  0  0  0  0  0  0
   29.6727    3.1254    4.0518 H   0  0  0  0  0  0  0  0  0  0  0  0
   29.3327    2.0039    5.3747 H   0  0  0  0  0  0  0  0  0  0  0  0
   29.9826    4.8437    6.1385 H   0  0  0  0  0  0  0  0  0  0  0  0
   29.1806    3.6306    7.1093 H   0  0  0  0  0  0  0  0  0  0  0  0
   28.5779    5.8808    7.3935 H   0  0  0  0  0  0  0  0  0  0  0  0
   26.8875    5.4059    7.5055 H   0  0  0  0  0  0  0  0  0  0  0  0
   27.3814    6.6404    6.3189 H   0  0  0  0  0  0  0  0  0  0  0  0
   28.8160    5.7273    4.1876 H   0  0  0  0  0  0  0  0  0  0  0  0
   27.5176    4.5235    3.6655 H   0  0  0  0  0  0  0  0  0  0  0  0
   27.0822    6.0699    4.4278 H   0  0  0  0  0  0  0  0  0  0  0  0
   27.2823    1.8168    6.1306 H   0  0  0  0  0  0  0  0  0  0  0  0
   25.9333    0.2246    7.0180 H   0  0  0  0  0  0  0  0  0  0  0  0
   25.3857   -0.1113    5.3891 H   0  0  0  0  0  0  0  0  0  0  0  0
   24.1920    0.1323    6.8036 H   0  0  0  0  0  0  0  0  0  0  0  0
   25.5777    5.6510    5.4828 H   0  0  0  0  0  0  0  0  0  0  0  0
   21.7906    3.8552    7.7501 H   0  0  0  0  0  0  0  0  0  0  0  0
   20.3171    4.8220    7.2251 H   0  0  0  0  0  0  0  0  0  0  0  0
   21.8415    5.6718    7.5988 H   0  0  0  0  0  0  0  0  0  0  0  0
   21.4969    6.5819    4.8291 H   0  0  0  0  0  0  0  0  0  0  0  0
   20.9870    5.1312    3.8502 H   0  0  0  0  0  0  0  0  0  0  0  0
   19.9856    5.6196    5.2211 H   0  0  0  0  0  0  0  0  0  0  0  0
   21.8789    3.3157    4.1081 H   0  0  0  0  0  0  0  0  0  0  0  0
   20.0330    2.8675    6.4976 H   0  0  0  0  0  0  0  0  0  0  0  0
   19.6599    3.5117    4.7963 H   0  0  0  0  0  0  0  0  0  0  0  0
   19.0841    1.0452    4.8161 H   0  0  0  0  0  0  0  0  0  0  0  0
   21.2043   -1.5262    4.7634 H   0  0  0  0  0  0  0  0  0  0  0  0
   21.1534   -0.8540    3.0582 H   0  0  0  0  0  0  0  0  0  0  0  0
   19.0687   -1.0819    4.9873 H   0  0  0  0  0  0  0  0  0  0  0  0
   23.1940    0.2893    4.7602 H   0  0  0  0  0  0  0  0  0  0  0  0
   22.6842    1.6146    3.6617 H   0  0  0  0  0  0  0  0  0  0  0  0
   22.3199    1.8348    6.7045 H   0  0  0  0  0  0  0  0  0  0  0  0
  1  2  1  0
  2  3  1  0
  3  4  1  0
  4  5  1  0
  5  6  1  0
  6  7  1  0
  7  8  1  0
  7  9  1  0
  7 10  1  0
 10 11  2  0
 11 12  1  0
 12 13  1  0
 12 14  2  0
 14 15  1  0
 15 16  2  0
 15 17  1  0
 17 18  1  0
 18 19  1  0
 18 20  1  0
 18 21  1  0
 21 22  1  0
 22 23  1  0
 23 24  2  0
 24 25  1  0
 25 26  1  0
 24 27  1  0
 27 28  1  0
 16 10  1  0
 28 21  1  0
 28 14  1  0
  1 29  1  0
  1 30  1  0
  1 31  1  0
  2 32  1  0
  2 33  1  0
  3 34  1  0
  3 35  1  0
  4 36  1  0
  4 37  1  0
  5 38  1  0
  5 39  1  0
  6 40  1  0
  6 41  1  0
  8 42  1  0
  8 43  1  0
  8 44  1  0
  9 45  1  0
  9 46  1  0
  9 47  1  0
 11 48  1  0
 13 49  1  0
 13 50  1  0
 13 51  1  0
 16 52  1  0
 19 53  1  0
 19 54  1  0
 19 55  1  0
 20 56  1  0
 20 57  1  0
 20 58  1  0
 21 59  1  6
 22 60  1  0
 22 61  1  0
 23 62  1  0
 25 63  1  0
 25 64  1  0
 26 65  1  0
 27 66  1  0
 27 67  1  0
 28 68  1  1
M  END
$$$$
