
     RDKit          3D

 68 70  0  0  0  0  0  0  0  0999 V2000
   33.3435    0.9847    4.7640 C   0  0  0  0  0  0  0  0  0  0  0  0
   33.7003    2.3811    4.3652 C   0  0  0  0  0  0  0  0  0  0  0  0
   33.0703    3.4572    5.1662 C   0  0  0  0  0  0  0  0  0  0  0  0
   31.5606    3.6627    5.0749 C   0  0  0  0  0  0  0  0  0  0  0  0
   30.7033    2.5216    5.3238 C   0  0  0  0  0  0  0  0  0  0  0  0
   29.2524    2.7161    5.4290 C   0  0  0  0  0  0  0  0  0  0  0  0
   28.4670    3.3426    4.3832 C   0  0  0  0  0  0  0  0  0  0  0  0
   28.5203    2.8047    2.9811 C   0  0  0  0  0  0  0  0  0  0  0  0
   28.5187    4.8383    4.4196 C   0  0  0  0  0  0  0  0  0  0  0  0
   26.9569    3.0390    4.7432 C   0  0  0  0  0  0  0  0  0  0  0  0
   26.6757    1.7030    4.9184 C   0  0  0  0  0  0  0  0  0  0  0  0
   25.3470    1.3406    5.2258 C   0  0  0  0  0  0  0  0  0  0  0  0
   25.1362   -0.0764    5.5371 C   0  0  0  0  0  0  0  0  0  0  0  0
   24.4464    2.3523    5.3216 C   0  0  0  0  0  0  0  0  0  0  0  0
   24.7205    3.6838    5.1781 C   0  0  0  0  0  0  0  0  0  0  0  0
   26.0321    4.0439    4.8562 C   0  0  0  0  0  0  0  0  0  0  0  0
   23.8012    4.7539    5.3879 O   0  0  0  0  0  0  0  0  0  0  0  0
   22.4832    4.3839    5.9146 C   0  0  0  0  0  0  0  0  0  0  0  0
   22.6714    4.1034    7.3977 C   0  0  0  0  0  0  0  0  0  0  0  0
   21.5625    5.5432    5.6571 C   0  0  0  0  0  0  0  0  0  0  0  0
   22.1174    3.1865    5.1533 C   0  0  2  0  0  0  0  0  0  0  0  0
   20.7001    2.6899    5.5991 C   0  0  0  0  0  0  0  0  0  0  0  0
   20.3928    1.4783    4.8028 C   0  0  0  0  0  0  0  0  0  0  0  0
   21.2457    0.7043    4.1943 C   0  0  0  0  0  0  0  0  0  0  0  0
   20.7547   -0.5057    3.4195 C   0  0  0  0  0  0  0  0  0  0  0  0
   19.3965   -0.6399    3.4699 O   0  0  0  0  0  0  0  0  0  0  0  0
   22.6782    1.0912    4.2127 C   0  0  0  0  0  0  0  0  0  0  0  0
   22.9830    1.9660    5.4268 C   0  0  1  0  0  0  0  0  0  0  0  0
   33.1829    0.9325    5.8716 H   0  0  0  0  0  0  0  0  0  0  0  0
   32.5860    0.4649    4.1834 H   0  0  0  0  0  0  0  0  0  0  0  0
   34.2656    0.3053    4.6768 H   0  0  0  0  0  0  0  0  0  0  0  0
   34.8280    2.4443    4.4958 H   0  0  0  0  0  0  0  0  0  0  0  0
   33.5107    2.5057    3.2519 H   0  0  0  0  0  0  0  0  0  0  0  0
   33.3299    3.2598    6.2465 H   0  0  0  0  0  0  0  0  0  0  0  0
   33.5801    4.4500    4.9490 H   0  0  0  0  0  0  0  0  0  0  0  0
   31.3615    4.5273    5.7364 H   0  0  0  0  0  0  0  0  0  0  0  0
   31.4082    4.1053    4.0102 H   0  0  0  0  0  0  0  0  0  0  0  0
   31.0636    1.8625    6.1846 H   0  0  0  0  0  0  0  0  0  0  0  0
   30.8560    1.8255    4.4110 H   0  0  0  0  0  0  0  0  0  0  0  0
   28.8015    1.7339    5.7830 H   0  0  0  0  0  0  0  0  0  0  0  0
   29.0512    3.3499    6.3822 H   0  0  0  0  0  0  0  0  0  0  0  0
   28.8782    1.7828    2.8515 H   0  0  0  0  0  0  0  0  0  0  0  0
   29.1202    3.5524    2.3551 H   0  0  0  0  0  0  0  0  0  0  0  0
   27.5184    2.8513    2.4802 H   0  0  0  0  0  0  0  0  0  0  0  0
   27.9767    5.2896    3.5261 H   0  0  0  0  0  0  0  0  0  0  0  0
   29.5313    5.2105    4.3998 H   0  0  0  0  0  0  0  0  0  0  0  0
   28.0489    5.2090    5.3972 H   0  0  0  0  0  0  0  0  0  0  0  0
   27.3541    0.8924    4.8263 H   0  0  0  0  0  0  0  0  0  0  0  0
   25.1988   -0.7680    4.7099 H   0  0  0  0  0  0  0  0  0  0  0  0
   26.0376   -0.3809    6.2044 H   0  0  0  0  0  0  0  0  0  0  0  0
   24.2700   -0.2737    6.2527 H   0  0  0  0  0  0  0  0  0  0  0  0
   26.2291    5.1139    4.7020 H   0  0  0  0  0  0  0  0  0  0  0  0
   23.7686    3.8959    7.5284 H   0  0  0  0  0  0  0  0  0  0  0  0
   22.4354    4.9763    8.0164 H   0  0  0  0  0  0  0  0  0  0  0  0
   22.1798    3.2188    7.7878 H   0  0  0  0  0  0  0  0  0  0  0  0
   20.6280    5.5259    6.2497 H   0  0  0  0  0  0  0  0  0  0  0  0
   22.0690    6.4983    5.8191 H   0  0  0  0  0  0  0  0  0  0  0  0
   21.2548    5.4919    4.5623 H   0  0  0  0  0  0  0  0  0  0  0  0
   21.9895    3.3640    4.0951 H   0  0  0  0  0  0  0  0  0  0  0  0
   20.8287    2.3235    6.6720 H   0  0  0  0  0  0  0  0  0  0  0  0
   19.9751    3.4929    5.5584 H   0  0  0  0  0  0  0  0  0  0  0  0
   19.3440    1.2007    4.7233 H   0  0  0  0  0  0  0  0  0  0  0  0
   21.3592   -1.3845    3.6980 H   0  0  0  0  0  0  0  0  0  0  0  0
   21.0659   -0.3161    2.3465 H   0  0  0  0  0  0  0  0  0  0  0  0
   18.9867   -0.2398    2.6539 H   0  0  0  0  0  0  0  0  0  0  0  0
   23.2105    0.1096    4.2255 H   0  0  0  0  0  0  0  0  0  0  0  0
   22.9950    1.6005    3.2569 H   0  0  0  0  0  0  0  0  0  0  0  0
   22.7875    1.5053    6.3264 H   0  0  0  0  0  0  0  0  0  0  0  0
  1  2  1  0
  2  3  1  0
  3  4  1  0
  4  5  1  0
  5  6  1  0
  6  7  1  0
  7  8  1  0
  7  9  1  0
  7 10  1  0
 10 11  2  0
 11 12  1  0
 12 13  1  0
 12 14  2  0
 14 15  1  0
 15 16  2  0
 15 17  1  0
 17 18  1  0
 18 19  1  0
 18 20  1  0
 18 21  1  0
 21 22  1  0
 22 23  1  0
 23 24  2  0
 24 25  1  0
 25 26  1  0
 24 27  1  0
 27 28  1  0
 16 10  1  0
 28 21  1  0
 28 14  1  0
  1 29  1  0
  1 30  1  0
  1 31  1  0
  2 32  1  0
  2 33  1  0
  3 34  1  0
  3 35  1  0
  4 36  1  0
  4 37  1  0
  5 38  1  0
  5 39  1  0
  6 40  1  0
  6 41  1  0
  8 42  1  0
  8 43  1  0
  8 44  1  0
  9 45  1  0
  9 46  1  0
  9 47  1  0
 11 48  1  0
 13 49  1  0
 13 50  1  0
 13 51  1  0
 16 52  1  0
 19 53  1  0
 19 54  1  0
 19 55  1  0
 20 56  1  0
 20 57  1  0
 20 58  1  0
 21 59  1  6
 22 60  1  0
 22 61  1  0
 23 62  1  0
 25 63  1  0
 25 64  1  0
 26 65  1  0
 27 66  1  0
 27 67  1  0
 28 68  1  1
M  END
$$$$
