
     RDKit          3D

 21 24  0  0  0  0  0  0  0  0999 V2000
   -6.0600  -10.5100    1.3120 C   0  0  0  0  0  0  0  0  0  0  0  0
   -4.6780   -9.9190    1.6030 C   0  0  2  0  0  0  0  0  0  0  0  0
   -3.7250  -10.9180    1.4030 O   0  0  0  0  0  0  0  0  0  0  0  0
   -4.6910   -9.4330    3.0740 C   0  0  0  0  0  0  0  0  0  0  0  0
   -4.9090   -7.8700    3.0110 C   0  0  0  0  0  0  0  0  0  0  0  0
   -5.2520   -7.6130    1.5380 C   0  0  1  0  0  0  0  0  0  0  0  0
   -5.1730   -6.1910    0.9710 C   0  0  2  0  0  0  0  0  0  0  0  0
   -5.9960   -5.2200    1.7770 C   0  0  0  0  0  0  0  0  0  0  0  0
   -5.9370   -3.8650    1.2110 C   0  0  0  0  0  0  0  0  0  0  0  0
   -6.0320   -3.7790   -0.2490 C   0  0  0  0  0  0  0  0  0  0  0  0
   -6.3040   -2.5450   -0.8420 C   0  0  0  0  0  0  0  0  0  0  0  0
   -6.4150   -2.4320   -2.2010 C   0  0  0  0  0  0  0  0  0  0  0  0
   -6.6770   -1.2250   -2.7480 O   0  0  0  0  0  0  0  0  0  0  0  0
   -6.2190   -3.5260   -3.0420 C   0  0  0  0  0  0  0  0  0  0  0  0
   -5.9480   -4.7600   -2.4950 C   0  0  0  0  0  0  0  0  0  0  0  0
   -5.8320   -4.9050   -1.0800 C   0  0  2  0  0  0  0  0  0  0  0  0
   -5.6780   -6.2610   -0.4960 C   0  0  1  0  0  0  0  0  0  0  0  0
   -4.7530   -7.2210   -1.3190 C   0  0  0  0  0  0  0  0  0  0  0  0
   -4.7410   -8.6710   -0.6990 C   0  0  0  0  0  0  0  0  0  0  0  0
   -4.3750   -8.6370    0.7850 C   0  0  2  0  0  0  0  0  0  0  0  0
   -2.8780   -8.3010    0.9070 C   0  0  0  0  0  0  0  0  0  0  0  0
  2  1  1  6
  3  2  1  0
  4  2  1  0
  5  4  1  0
  6  5  1  1
  7  6  1  0
  7  8  1  1
  9  8  1  0
 10  9  1  0
 11 10  1  0
 12 11  1  0
 13 12  1  0
 14 12  1  0
 15 14  1  0
 16 15  1  6
 16 10  1  0
 17 16  1  0
 17  7  1  0
 17 18  1  6
 19 18  1  0
 20 19  1  0
 20  6  1  0
 20  2  1  0
 20 21  1  6
M  END
$$$$
