
     RDKit          3D

 53 55  0  0  0  0  0  0  0  0999 V2000
   33.6675   -0.2118    2.4273 C   0  0  0  0  0  0  0  0  0  0  0  0
   32.2417   -0.0483    2.9243 C   0  0  0  0  0  0  0  0  0  0  0  0
   32.1360    1.1528    3.8647 C   0  0  0  0  0  0  0  0  0  0  0  0
   30.7175    1.2429    4.3941 C   0  0  0  0  0  0  0  0  0  0  0  0
   29.7751    1.3637    3.2540 C   0  0  0  0  0  0  0  0  0  0  0  0
   28.3408    1.3830    3.6588 C   0  0  0  0  0  0  0  0  0  0  0  0
   27.8291    0.1661    3.9961 C   0  0  0  0  0  0  0  0  0  0  0  0
   26.4246    0.0054    4.1456 C   0  0  0  0  0  0  0  0  0  0  0  0
   26.0806   -1.2649    4.4978 O   0  0  0  0  0  0  0  0  0  0  0  0
   25.5612    1.1522    3.9215 C   0  0  0  0  0  0  0  0  0  0  0  0
   26.1718    2.3238    3.6056 C   0  0  0  0  0  0  0  0  0  0  0  0
   27.5682    2.4934    3.4568 C   0  0  0  0  0  0  0  0  0  0  0  0
   25.4506    3.5339    3.4800 O   0  0  0  0  0  0  0  0  0  0  0  0
   23.9695    3.4974    3.7510 C   0  0  0  0  0  0  0  0  0  0  0  0
   23.7287    3.8056    5.1377 C   0  0  0  0  0  0  0  0  0  0  0  0
   23.4936    4.6470    2.8995 C   0  0  0  0  0  0  0  0  0  0  0  0
   23.5702    2.1602    3.2955 C   0  0  2  0  0  0  0  0  0  0  0  0
   21.9951    1.9890    3.3505 C   0  0  0  0  0  0  0  0  0  0  0  0
   21.5957    0.6142    2.7482 C   0  0  0  0  0  0  0  0  0  0  0  0
   22.3487   -0.5408    3.0531 C   0  0  0  0  0  0  0  0  0  0  0  0
   22.0027   -1.9731    2.6766 C   0  0  0  0  0  0  0  0  0  0  0  0
   23.5470   -0.2989    3.6431 C   0  0  0  0  0  0  0  0  0  0  0  0
   24.0950    1.0263    4.0222 C   0  0  1  0  0  0  0  0  0  0  0  0
   33.5980   -0.6899    1.4212 H   0  0  0  0  0  0  0  0  0  0  0  0
   34.1815   -0.8507    3.1771 H   0  0  0  0  0  0  0  0  0  0  0  0
   34.1417    0.7789    2.3630 H   0  0  0  0  0  0  0  0  0  0  0  0
   31.9961   -0.9387    3.4440 H   0  0  0  0  0  0  0  0  0  0  0  0
   31.5666    0.1911    2.0305 H   0  0  0  0  0  0  0  0  0  0  0  0
   32.3371    2.0643    3.2473 H   0  0  0  0  0  0  0  0  0  0  0  0
   32.8605    1.0067    4.6956 H   0  0  0  0  0  0  0  0  0  0  0  0
   30.4823    0.2991    4.9184 H   0  0  0  0  0  0  0  0  0  0  0  0
   30.6184    2.0641    5.1246 H   0  0  0  0  0  0  0  0  0  0  0  0
   29.9804    2.2985    2.6594 H   0  0  0  0  0  0  0  0  0  0  0  0
   29.8605    0.4808    2.5148 H   0  0  0  0  0  0  0  0  0  0  0  0
   28.5441   -0.5770    4.2578 H   0  0  0  0  0  0  0  0  0  0  0  0
   26.4774   -1.9884    3.9599 H   0  0  0  0  0  0  0  0  0  0  0  0
   27.9718    3.4012    3.0977 H   0  0  0  0  0  0  0  0  0  0  0  0
   24.4394    3.3444    5.8574 H   0  0  0  0  0  0  0  0  0  0  0  0
   23.8868    4.8747    5.2938 H   0  0  0  0  0  0  0  0  0  0  0  0
   22.6802    3.5302    5.4618 H   0  0  0  0  0  0  0  0  0  0  0  0
   22.6466    4.4443    2.3006 H   0  0  0  0  0  0  0  0  0  0  0  0
   23.4177    5.5195    3.5539 H   0  0  0  0  0  0  0  0  0  0  0  0
   24.2941    4.9343    2.1469 H   0  0  0  0  0  0  0  0  0  0  0  0
   23.8594    1.9648    2.2119 H   0  0  0  0  0  0  0  0  0  0  0  0
   21.6080    2.0528    4.3043 H   0  0  0  0  0  0  0  0  0  0  0  0
   21.5962    2.7351    2.6511 H   0  0  0  0  0  0  0  0  0  0  0  0
   20.4849    0.4957    3.0064 H   0  0  0  0  0  0  0  0  0  0  0  0
   21.5729    0.7818    1.6174 H   0  0  0  0  0  0  0  0  0  0  0  0
   21.4150   -2.4437    3.4833 H   0  0  0  0  0  0  0  0  0  0  0  0
   22.9523   -2.5761    2.6498 H   0  0  0  0  0  0  0  0  0  0  0  0
   21.5574   -1.9464    1.7095 H   0  0  0  0  0  0  0  0  0  0  0  0
   24.1342   -1.2526    3.7801 H   0  0  0  0  0  0  0  0  0  0  0  0
   23.9006    1.0114    5.1523 H   0  0  0  0  0  0  0  0  0  0  0  0
  1  2  1  0
  2  3  1  0
  3  4  1  0
  4  5  1  0
  5  6  1  0
  6  7  2  0
  7  8  1  0
  8  9  1  0
  8 10  2  0
 10 11  1  0
 11 12  2  0
 11 13  1  0
 13 14  1  0
 14 15  1  0
 14 16  1  0
 14 17  1  0
 17 18  1  0
 18 19  1  0
 19 20  1  0
 20 21  1  0
 20 22  2  0
 22 23  1  0
 12  6  1  0
 23 17  1  0
 23 10  1  0
  1 24  1  0
  1 25  1  0
  1 26  1  0
  2 27  1  0
  2 28  1  0
  3 29  1  0
  3 30  1  0
  4 31  1  0
  4 32  1  0
  5 33  1  0
  5 34  1  0
  7 35  1  0
  9 36  1  0
 12 37  1  0
 15 38  1  0
 15 39  1  0
 15 40  1  0
 16 41  1  0
 16 42  1  0
 16 43  1  0
 17 44  1  6
 18 45  1  0
 18 46  1  0
 19 47  1  0
 19 48  1  0
 21 49  1  0
 21 50  1  0
 21 51  1  0
 22 52  1  0
 23 53  1  1
M  END
$$$$
