
     RDKit          3D

 58 62  0  0  0  0  0  0  0  0999 V2000
   23.2797   -0.3160    5.7628 C   0  0  0  0  0  0  0  0  0  0  0  0
   23.6122   -0.3227    7.2539 C   0  0  2  0  0  0  0  0  0  0  0  0
   23.0102    0.9147    7.9186 C   0  0  0  0  0  0  0  0  0  0  0  0
   23.5946    2.1706    7.2737 C   0  0  2  0  0  0  0  0  0  0  0  0
   23.2611    2.1822    5.7827 C   0  0  0  0  0  0  0  0  0  0  0  0
   23.8602    0.9424    5.1200 C   0  0  1  0  0  0  0  0  0  0  0  0
   25.3766    0.9527    5.2987 C   0  0  0  0  0  0  0  0  0  0  0  0
   25.7149    0.9439    6.7939 C   0  0  2  0  0  0  0  0  0  0  0  0
   25.1283   -0.3168    7.4377 C   0  0  0  0  0  0  0  0  0  0  0  0
   25.1123    2.1826    7.4569 C   0  0  0  0  0  0  0  0  0  0  0  0
   27.1592    0.9828    6.9797 N   0  0  0  0  0  0  0  0  0  0  0  0
   28.0390    0.0529    6.5549 C   0  0  0  0  0  0  0  0  0  0  0  0
   27.7471   -0.9841    5.9833 O   0  0  0  0  0  0  0  0  0  0  0  0
   29.4392    0.4386    6.8294 C   0  0  0  0  0  0  0  0  0  0  0  0
   29.7477    1.5846    7.4076 N   0  0  0  0  0  0  0  0  0  0  0  0
   31.0771    1.6832    7.4640 N   0  0  0  0  0  0  0  0  0  0  0  0
   31.6742    0.5953    6.9047 C   0  0  0  0  0  0  0  0  0  0  0  0
   33.0133    0.2549    6.7268 C   0  0  0  0  0  0  0  0  0  0  0  0
   33.2745   -0.9515    6.1205 C   0  0  0  0  0  0  0  0  0  0  0  0
   32.2463   -1.8066    5.6969 C   0  0  0  0  0  0  0  0  0  0  0  0
   30.9227   -1.4811    5.8682 C   0  0  0  0  0  0  0  0  0  0  0  0
   30.6294   -0.2619    6.4803 C   0  0  0  0  0  0  0  0  0  0  0  0
   31.6800    2.9072    7.9083 C   0  0  0  0  0  0  0  0  0  0  0  0
   31.9915    3.8536    6.7365 C   0  0  0  0  0  0  0  0  0  0  0  0
   30.8352    3.9923    5.7437 C   0  0  0  0  0  0  0  0  0  0  0  0
   29.5516    4.5278    6.3733 C   0  0  0  0  0  0  0  0  0  0  0  0
   28.4110    4.5025    5.3672 C   0  0  0  0  0  0  0  0  0  0  0  0
   27.2355    4.8888    5.9700 F   0  0  0  0  0  0  0  0  0  0  0  0
   22.1965   -0.3404    5.6221 H   0  0  0  0  0  0  0  0  0  0  0  0
   23.7023   -1.2028    5.2863 H   0  0  0  0  0  0  0  0  0  0  0  0
   23.1972   -1.2249    7.7171 H   0  0  0  0  0  0  0  0  0  0  0  0
   23.2312    0.9077    8.9886 H   0  0  0  0  0  0  0  0  0  0  0  0
   21.9241    0.9090    7.8015 H   0  0  0  0  0  0  0  0  0  0  0  0
   23.1684    3.0605    7.7504 H   0  0  0  0  0  0  0  0  0  0  0  0
   22.1775    2.1913    5.6450 H   0  0  0  0  0  0  0  0  0  0  0  0
   23.6660    3.0851    5.3202 H   0  0  0  0  0  0  0  0  0  0  0  0
   23.6233    0.9493    4.0501 H   0  0  0  0  0  0  0  0  0  0  0  0
   25.8038    1.8460    4.8358 H   0  0  0  0  0  0  0  0  0  0  0  0
   25.8229    0.0758    4.8281 H   0  0  0  0  0  0  0  0  0  0  0  0
   25.3820   -0.3331    8.5006 H   0  0  0  0  0  0  0  0  0  0  0  0
   25.5727   -1.1951    6.9691 H   0  0  0  0  0  0  0  0  0  0  0  0
   25.5324    3.0856    7.0080 H   0  0  0  0  0  0  0  0  0  0  0  0
   25.3579    2.1844    8.5219 H   0  0  0  0  0  0  0  0  0  0  0  0
   27.5532    1.7985    7.4239 H   0  0  0  0  0  0  0  0  0  0  0  0
   33.8098    0.9077    7.0507 H   0  0  0  0  0  0  0  0  0  0  0  0
   34.2999   -1.2528    5.9632 H   0  0  0  0  0  0  0  0  0  0  0  0
   32.5122   -2.7415    5.2266 H   0  0  0  0  0  0  0  0  0  0  0  0
   30.1203   -2.1262    5.5492 H   0  0  0  0  0  0  0  0  0  0  0  0
   32.6007    2.6758    8.4504 H   0  0  0  0  0  0  0  0  0  0  0  0
   30.9775    3.3778    8.5985 H   0  0  0  0  0  0  0  0  0  0  0  0
   32.2501    4.8304    7.1479 H   0  0  0  0  0  0  0  0  0  0  0  0
   32.8605    3.4741    6.1950 H   0  0  0  0  0  0  0  0  0  0  0  0
   30.6296    3.0171    5.2966 H   0  0  0  0  0  0  0  0  0  0  0  0
   31.1493    4.6581    4.9368 H   0  0  0  0  0  0  0  0  0  0  0  0
   29.2623    3.8992    7.2156 H   0  0  0  0  0  0  0  0  0  0  0  0
   29.6998    5.5481    6.7323 H   0  0  0  0  0  0  0  0  0  0  0  0
   28.5777    5.1929    4.5340 H   0  0  0  0  0  0  0  0  0  0  0  0
   28.2457    3.4891    4.9856 H   0  0  0  0  0  0  0  0  0  0  0  0
  1  2  1  0
  2  3  1  0
  3  4  1  0
  4  5  1  0
  5  6  1  0
  6  7  1  0
  7  8  1  0
  8  9  1  0
  8 10  1  0
  8 11  1  6
 11 12  1  0
 12 13  2  0
 12 14  1  0
 14 15  2  0
 15 16  1  0
 16 17  1  0
 17 18  2  0
 18 19  1  0
 19 20  2  0
 20 21  1  0
 21 22  2  0
 16 23  1  0
 23 24  1  0
 24 25  1  0
 25 26  1  0
 26 27  1  0
 27 28  1  0
  6  1  1  0
  9  2  1  0
 10  4  1  0
 22 14  1  0
 22 17  1  0
  1 29  1  0
  1 30  1  0
  2 31  1  1
  3 32  1  0
  3 33  1  0
  4 34  1  1
  5 35  1  0
  5 36  1  0
  6 37  1  6
  7 38  1  0
  7 39  1  0
  9 40  1  0
  9 41  1  0
 10 42  1  0
 10 43  1  0
 11 44  1  0
 18 45  1  0
 19 46  1  0
 20 47  1  0
 21 48  1  0
 23 49  1  0
 23 50  1  0
 24 51  1  0
 24 52  1  0
 25 53  1  0
 25 54  1  0
 26 55  1  0
 26 56  1  0
 27 57  1  0
 27 58  1  0
M  END
$$$$
