
     RDKit          3D

 59 61  0  0  0  0  0  0  0  0999 V2000
   29.7368    1.3744    7.7678 C   0  0  0  0  0  0  0  0  0  0  0  0
   30.2030    0.8723    6.4007 C   0  0  0  0  0  0  0  0  0  0  0  0
   29.4068   -0.3734    6.0064 C   0  0  0  0  0  0  0  0  0  0  0  0
   31.6948    0.5384    6.4568 C   0  0  0  0  0  0  0  0  0  0  0  0
   29.9672    2.0104    5.3633 C   0  0  1  0  0  0  0  0  0  0  0  0
   30.6353    1.6840    4.0363 C   0  0  0  0  0  0  0  0  0  0  0  0
   30.1573    0.9774    3.1862 O   0  0  0  0  0  0  0  0  0  0  0  0
   31.8193    2.2850    3.9230 O   0  0  0  0  0  0  0  0  0  0  0  0
   32.5421    2.0375    2.7239 C   0  0  0  0  0  0  0  0  0  0  0  0
   28.5659    2.2384    5.1283 N   0  0  0  0  0  0  0  0  0  0  0  0
   27.9360    3.3880    5.4674 C   0  0  0  0  0  0  0  0  0  0  0  0
   28.4698    4.2983    6.0760 O   0  0  0  0  0  0  0  0  0  0  0  0
   26.5251    3.4072    5.0501 C   0  0  0  0  0  0  0  0  0  0  0  0
   25.9721    2.4033    4.3899 N   0  0  0  0  0  0  0  0  0  0  0  0
   24.7004    2.7126    4.1527 N   0  0  0  0  0  0  0  0  0  0  0  0
   24.3821    3.9317    4.6683 C   0  0  0  0  0  0  0  0  0  0  0  0
   23.1957    4.6625    4.6711 C   0  0  0  0  0  0  0  0  0  0  0  0
   23.2231    5.8930    5.2845 C   0  0  0  0  0  0  0  0  0  0  0  0
   24.3877    6.3976    5.8824 C   0  0  0  0  0  0  0  0  0  0  0  0
   25.5629    5.6864    5.8834 C   0  0  0  0  0  0  0  0  0  0  0  0
   25.5624    4.4341    5.2678 C   0  0  0  0  0  0  0  0  0  0  0  0
   23.8255    1.7747    3.5103 C   0  0  0  0  0  0  0  0  0  0  0  0
   22.9771    0.9943    4.5266 C   0  0  0  0  0  0  0  0  0  0  0  0
   21.9451    0.1283    3.8046 C   0  0  0  0  0  0  0  0  0  0  0  0
   21.0964   -0.6455    4.8097 C   0  0  0  0  0  0  0  0  0  0  0  0
   21.9794   -1.5128    5.7013 C   0  0  0  0  0  0  0  0  0  0  0  0
   23.0130   -0.6529    6.4220 C   0  0  0  0  0  0  0  0  0  0  0  0
   23.8604    0.1183    5.4149 C   0  0  0  0  0  0  0  0  0  0  0  0
   28.7032    1.7075    7.7200 H   0  0  0  0  0  0  0  0  0  0  0  0
   30.3471    2.2116    8.0971 H   0  0  0  0  0  0  0  0  0  0  0  0
   29.8104    0.5788    8.5058 H   0  0  0  0  0  0  0  0  0  0  0  0
   29.6842   -1.2068    6.6480 H   0  0  0  0  0  0  0  0  0  0  0  0
   28.3396   -0.1986    6.1176 H   0  0  0  0  0  0  0  0  0  0  0  0
   29.6084   -0.6505    4.9745 H   0  0  0  0  0  0  0  0  0  0  0  0
   32.2879    1.4410    6.5843 H   0  0  0  0  0  0  0  0  0  0  0  0
   31.8943   -0.1270    7.2939 H   0  0  0  0  0  0  0  0  0  0  0  0
   32.0165    0.0399    5.5449 H   0  0  0  0  0  0  0  0  0  0  0  0
   30.3891    2.9426    5.7541 H   0  0  0  0  0  0  0  0  0  0  0  0
   33.4391    2.6483    2.7772 H   0  0  0  0  0  0  0  0  0  0  0  0
   32.8029    0.9796    2.6504 H   0  0  0  0  0  0  0  0  0  0  0  0
   31.9397    2.3118    1.8559 H   0  0  0  0  0  0  0  0  0  0  0  0
   28.0712    1.5798    4.5447 H   0  0  0  0  0  0  0  0  0  0  0  0
   22.2963    4.2813    4.2118 H   0  0  0  0  0  0  0  0  0  0  0  0
   22.3242    6.4916    5.3094 H   0  0  0  0  0  0  0  0  0  0  0  0
   24.3491    7.3706    6.3493 H   0  0  0  0  0  0  0  0  0  0  0  0
   26.4667    6.0608    6.3359 H   0  0  0  0  0  0  0  0  0  0  0  0
   24.4532    1.0844    2.9421 H   0  0  0  0  0  0  0  0  0  0  0  0
   23.1749    2.3183    2.8182 H   0  0  0  0  0  0  0  0  0  0  0  0
   22.4499    1.7171    5.1603 H   0  0  0  0  0  0  0  0  0  0  0  0
   21.3020    0.7552    3.1823 H   0  0  0  0  0  0  0  0  0  0  0  0
   22.4625   -0.5753    3.1484 H   0  0  0  0  0  0  0  0  0  0  0  0
   20.5376    0.0593    5.4299 H   0  0  0  0  0  0  0  0  0  0  0  0
   20.3742   -1.2692    4.2791 H   0  0  0  0  0  0  0  0  0  0  0  0
   21.3636   -2.0446    6.4291 H   0  0  0  0  0  0  0  0  0  0  0  0
   22.4921   -2.2575    5.0883 H   0  0  0  0  0  0  0  0  0  0  0  0
   23.6562   -1.2822    7.0399 H   0  0  0  0  0  0  0  0  0  0  0  0
   22.5019    0.0520    7.0821 H   0  0  0  0  0  0  0  0  0  0  0  0
   24.4114   -0.5864    4.7879 H   0  0  0  0  0  0  0  0  0  0  0  0
   24.5908    0.7368    5.9401 H   0  0  0  0  0  0  0  0  0  0  0  0
  1  2  1  0
  2  3  1  0
  2  4  1  0
  2  5  1  0
  5  6  1  0
  6  7  2  0
  6  8  1  0
  8  9  1  0
  5 10  1  0
 10 11  1  0
 11 12  2  0
 11 13  1  0
 13 14  2  0
 14 15  1  0
 15 16  1  0
 16 17  2  0
 17 18  1  0
 18 19  2  0
 19 20  1  0
 20 21  2  0
 15 22  1  0
 22 23  1  0
 23 24  1  0
 24 25  1  0
 25 26  1  0
 26 27  1  0
 27 28  1  0
 21 13  1  0
 21 16  1  0
 28 23  1  0
  1 29  1  0
  1 30  1  0
  1 31  1  0
  3 32  1  0
  3 33  1  0
  3 34  1  0
  4 35  1  0
  4 36  1  0
  4 37  1  0
  5 38  1  1
  9 39  1  0
  9 40  1  0
  9 41  1  0
 10 42  1  0
 17 43  1  0
 18 44  1  0
 19 45  1  0
 20 46  1  0
 22 47  1  0
 22 48  1  0
 23 49  1  0
 24 50  1  0
 24 51  1  0
 25 52  1  0
 25 53  1  0
 26 54  1  0
 26 55  1  0
 27 56  1  0
 27 57  1  0
 28 58  1  0
 28 59  1  0
M  END
$$$$
