
     RDKit          3D

 49 51  0  0  0  0  0  0  0  0999 V2000
   31.9058    4.5867    6.9060 C   0  0  0  0  0  0  0  0  0  0  0  0
   31.7933    3.1022    6.5815 C   0  0  0  0  0  0  0  0  0  0  0  0
   30.9445    2.8565    5.3367 C   0  0  0  0  0  0  0  0  0  0  0  0
   30.8263    1.3710    5.0089 C   0  0  0  0  0  0  0  0  0  0  0  0
   29.9801    1.1173    3.7544 C   0  0  0  0  0  0  0  0  0  0  0  0
   28.5573    1.5477    3.9607 C   0  0  0  0  0  0  0  0  0  0  0  0
   27.6890    0.7654    4.7025 C   0  0  0  0  0  0  0  0  0  0  0  0
   26.3807    1.1755    4.9197 C   0  0  0  0  0  0  0  0  0  0  0  0
   25.9095    2.4116    4.4476 C   0  0  0  0  0  0  0  0  0  0  0  0
   26.7869    3.1742    3.6637 C   0  0  0  0  0  0  0  0  0  0  0  0
   26.3672    4.3498    3.1116 O   0  0  0  0  0  0  0  0  0  0  0  0
   28.0831    2.7362    3.4266 C   0  0  0  0  0  0  0  0  0  0  0  0
   24.5660    2.8184    4.8618 C   0  0  0  0  0  0  0  0  0  0  0  0
   24.1337    4.1415    4.8386 C   0  0  0  0  0  0  0  0  0  0  0  0
   22.8657    4.4988    5.2684 C   0  0  0  0  0  0  0  0  0  0  0  0
   22.4304    5.9332    5.2402 C   0  0  0  0  0  0  0  0  0  0  0  0
   22.0172    3.5087    5.7436 C   0  0  0  0  0  0  0  0  0  0  0  0
   22.4393    2.1928    5.8004 C   0  0  0  0  0  0  0  0  0  0  0  0
   23.7066    1.8357    5.3722 C   0  0  0  0  0  0  0  0  0  0  0  0
   24.1825    0.4008    5.3882 C   0  0  0  0  0  0  0  0  0  0  0  0
   23.5631   -0.4355    6.5088 C   0  0  0  0  0  0  0  0  0  0  0  0
   23.8868   -0.2374    4.0199 C   0  0  0  0  0  0  0  0  0  0  0  0
   25.5922    0.3392    5.6370 O   0  0  0  0  0  0  0  0  0  0  0  0
   32.5109    4.7405    7.7965 H   0  0  0  0  0  0  0  0  0  0  0  0
   30.9205    5.0127    7.0822 H   0  0  0  0  0  0  0  0  0  0  0  0
   32.3681    5.1241    6.0805 H   0  0  0  0  0  0  0  0  0  0  0  0
   31.3463    2.5787    7.4295 H   0  0  0  0  0  0  0  0  0  0  0  0
   32.7925    2.6877    6.4262 H   0  0  0  0  0  0  0  0  0  0  0  0
   31.3922    3.3801    4.4880 H   0  0  0  0  0  0  0  0  0  0  0  0
   29.9458    3.2693    5.4947 H   0  0  0  0  0  0  0  0  0  0  0  0
   30.3732    0.8507    5.8551 H   0  0  0  0  0  0  0  0  0  0  0  0
   31.8245    0.9542    4.8537 H   0  0  0  0  0  0  0  0  0  0  0  0
   30.0054    0.0500    3.5242 H   0  0  0  0  0  0  0  0  0  0  0  0
   30.4154    1.6585    2.9120 H   0  0  0  0  0  0  0  0  0  0  0  0
   28.0051   -0.1804    5.1133 H   0  0  0  0  0  0  0  0  0  0  0  0
   27.0770    4.7095    2.5651 H   0  0  0  0  0  0  0  0  0  0  0  0
   28.7367    3.3472    2.8163 H   0  0  0  0  0  0  0  0  0  0  0  0
   24.7978    4.9081    4.4776 H   0  0  0  0  0  0  0  0  0  0  0  0
   21.3572    6.0095    5.0794 H   0  0  0  0  0  0  0  0  0  0  0  0
   22.6628    6.4117    6.1924 H   0  0  0  0  0  0  0  0  0  0  0  0
   22.9467    6.4785    4.4538 H   0  0  0  0  0  0  0  0  0  0  0  0
   21.0211    3.7661    6.0744 H   0  0  0  0  0  0  0  0  0  0  0  0
   21.7639    1.4411    6.1783 H   0  0  0  0  0  0  0  0  0  0  0  0
   22.5253   -0.6687    6.2933 H   0  0  0  0  0  0  0  0  0  0  0  0
   23.6291    0.0954    7.4549 H   0  0  0  0  0  0  0  0  0  0  0  0
   24.1210   -1.3646    6.5935 H   0  0  0  0  0  0  0  0  0  0  0  0
   22.8186   -0.2115    3.8221 H   0  0  0  0  0  0  0  0  0  0  0  0
   24.2315   -1.2690    4.0089 H   0  0  0  0  0  0  0  0  0  0  0  0
   24.4014    0.3129    3.2344 H   0  0  0  0  0  0  0  0  0  0  0  0
  1  2  1  0
  2  3  1  0
  3  4  1  0
  4  5  1  0
  5  6  1  0
  6  7  2  0
  7  8  1  0
  8  9  2  0
  9 10  1  0
 10 11  1  0
 10 12  2  0
  9 13  1  0
 13 14  2  0
 14 15  1  0
 15 16  1  0
 15 17  2  0
 17 18  1  0
 18 19  2  0
 19 20  1  0
 20 21  1  0
 20 22  1  0
 20 23  1  0
 12  6  1  0
 19 13  1  0
 23  8  1  0
  1 24  1  0
  1 25  1  0
  1 26  1  0
  2 27  1  0
  2 28  1  0
  3 29  1  0
  3 30  1  0
  4 31  1  0
  4 32  1  0
  5 33  1  0
  5 34  1  0
  7 35  1  0
 11 36  1  0
 12 37  1  0
 14 38  1  0
 16 39  1  0
 16 40  1  0
 16 41  1  0
 17 42  1  0
 18 43  1  0
 21 44  1  0
 21 45  1  0
 21 46  1  0
 22 47  1  0
 22 48  1  0
 22 49  1  0
M  END
$$$$
