
     RDKit          3D

 53 55  0  0  0  0  0  0  0  0999 V2000
   32.8082    3.5799    6.7763 C   0  0  0  0  0  0  0  0  0  0  0  0
   32.4333    2.3478    6.0257 C   0  0  0  0  0  0  0  0  0  0  0  0
   31.1420    2.5725    5.3128 C   0  0  0  0  0  0  0  0  0  0  0  0
   30.8376    1.3013    4.5893 C   0  0  0  0  0  0  0  0  0  0  0  0
   29.6222    1.3253    3.7985 C   0  0  0  0  0  0  0  0  0  0  0  0
   28.3753    1.6207    4.4841 C   0  0  0  0  0  0  0  0  0  0  0  0
   27.8345    0.6217    5.2913 C   0  0  0  0  0  0  0  0  0  0  0  0
   26.5822    0.8160    5.8531 C   0  0  0  0  0  0  0  0  0  0  0  0
   25.9692   -0.0787    6.6784 O   0  0  0  0  0  0  0  0  0  0  0  0
   25.8644    1.9958    5.6057 C   0  0  0  0  0  0  0  0  0  0  0  0
   26.4112    3.0010    4.8149 C   0  0  0  0  0  0  0  0  0  0  0  0
   27.6779    2.8133    4.2430 C   0  0  0  0  0  0  0  0  0  0  0  0
   25.8155    4.2389    4.5569 O   0  0  0  0  0  0  0  0  0  0  0  0
   24.5367    4.5392    5.1306 C   0  0  0  0  0  0  0  0  0  0  0  0
   23.8079    5.0133    3.7353 C   0  0  0  0  0  0  0  0  0  0  0  0
   24.4690    5.7519    5.9311 C   0  0  0  0  0  0  0  0  0  0  0  0
   23.8482    3.2893    5.4526 C   0  0  2  0  0  0  0  0  0  0  0  0
   22.4857    3.5485    6.0669 C   0  0  0  0  0  0  0  0  0  0  0  0
   21.7672    2.2986    6.4093 C   0  0  0  0  0  0  0  0  0  0  0  0
   22.3839    1.0774    5.8614 C   0  0  0  0  0  0  0  0  0  0  0  0
   21.5181   -0.0515    5.3273 C   0  0  0  0  0  0  0  0  0  0  0  0
   23.6815    0.9942    5.7675 C   0  0  0  0  0  0  0  0  0  0  0  0
   24.5530    2.2356    6.2511 C   0  0  1  0  0  0  0  0  0  0  0  0
   33.1130    4.3233    6.0128 H   0  0  0  0  0  0  0  0  0  0  0  0
   31.9531    3.9582    7.3614 H   0  0  0  0  0  0  0  0  0  0  0  0
   33.6475    3.3569    7.4849 H   0  0  0  0  0  0  0  0  0  0  0  0
   32.3956    1.4132    6.6559 H   0  0  0  0  0  0  0  0  0  0  0  0
   33.1761    2.1804    5.1999 H   0  0  0  0  0  0  0  0  0  0  0  0
   31.2438    3.3597    4.4906 H   0  0  0  0  0  0  0  0  0  0  0  0
   30.2910    2.8634    5.9959 H   0  0  0  0  0  0  0  0  0  0  0  0
   30.8094    0.3903    5.2683 H   0  0  0  0  0  0  0  0  0  0  0  0
   31.6853    1.1296    3.8613 H   0  0  0  0  0  0  0  0  0  0  0  0
   29.5285    0.3308    3.2532 H   0  0  0  0  0  0  0  0  0  0  0  0
   29.6593    2.0508    2.9166 H   0  0  0  0  0  0  0  0  0  0  0  0
   28.3738   -0.2791    5.4842 H   0  0  0  0  0  0  0  0  0  0  0  0
   26.1992   -1.0700    6.6955 H   0  0  0  0  0  0  0  0  0  0  0  0
   28.1483    3.5621    3.6048 H   0  0  0  0  0  0  0  0  0  0  0  0
   24.4255    5.8444    3.4705 H   0  0  0  0  0  0  0  0  0  0  0  0
   23.9927    4.1181    3.0673 H   0  0  0  0  0  0  0  0  0  0  0  0
   22.7789    5.2139    3.9758 H   0  0  0  0  0  0  0  0  0  0  0  0
   23.5370    6.3954    5.7540 H   0  0  0  0  0  0  0  0  0  0  0  0
   25.2732    6.4783    5.5050 H   0  0  0  0  0  0  0  0  0  0  0  0
   24.5809    5.6597    7.0633 H   0  0  0  0  0  0  0  0  0  0  0  0
   23.6275    2.8125    4.4404 H   0  0  0  0  0  0  0  0  0  0  0  0
   21.8381    4.1919    5.4295 H   0  0  0  0  0  0  0  0  0  0  0  0
   22.6696    4.1078    7.0288 H   0  0  0  0  0  0  0  0  0  0  0  0
   20.7245    2.3759    6.1612 H   0  0  0  0  0  0  0  0  0  0  0  0
   21.7365    2.0998    7.5517 H   0  0  0  0  0  0  0  0  0  0  0  0
   22.1151   -0.8575    4.8615 H   0  0  0  0  0  0  0  0  0  0  0  0
   20.7294   -0.3382    6.0212 H   0  0  0  0  0  0  0  0  0  0  0  0
   20.9985    0.4593    4.4474 H   0  0  0  0  0  0  0  0  0  0  0  0
   24.1906    0.1357    5.3790 H   0  0  0  0  0  0  0  0  0  0  0  0
   24.5131    2.2292    7.2793 H   0  0  0  0  0  0  0  0  0  0  0  0
  1  2  1  0
  2  3  1  0
  3  4  1  0
  4  5  1  0
  5  6  1  0
  6  7  2  0
  7  8  1  0
  8  9  1  0
  8 10  2  0
 10 11  1  0
 11 12  2  0
 11 13  1  0
 13 14  1  0
 14 15  1  0
 14 16  1  0
 14 17  1  0
 17 18  1  0
 18 19  1  0
 19 20  1  0
 20 21  1  0
 20 22  2  0
 22 23  1  0
 12  6  1  0
 23 17  1  0
 23 10  1  0
  1 24  1  0
  1 25  1  0
  1 26  1  0
  2 27  1  0
  2 28  1  0
  3 29  1  0
  3 30  1  0
  4 31  1  0
  4 32  1  0
  5 33  1  0
  5 34  1  0
  7 35  1  0
  9 36  1  0
 12 37  1  0
 15 38  1  0
 15 39  1  0
 15 40  1  0
 16 41  1  0
 16 42  1  0
 16 43  1  0
 17 44  1  6
 18 45  1  0
 18 46  1  0
 19 47  1  0
 19 48  1  0
 21 49  1  0
 21 50  1  0
 21 51  1  0
 22 52  1  0
 23 53  1  1
M  END
$$$$
