
     RDKit          3D

 54 57  0  0  0  0  0  0  0  0999 V2000
   26.7395    0.3907    4.7413 C   0  0  0  0  0  0  0  0  0  0  0  0
   26.7065    0.7849    6.2221 C   0  0  2  0  0  0  0  0  0  0  0  0
   25.8620   -0.2438    6.9960 C   0  0  0  0  0  0  0  0  0  0  0  0
   24.3867   -0.2441    6.5860 C   0  0  0  0  0  0  0  0  0  0  0  0
   23.7713    1.1294    6.6775 C   0  0  0  0  0  0  0  0  0  0  0  0
   22.7241    1.3454    7.2348 O   0  0  0  0  0  0  0  0  0  0  0  0
   24.5820    2.2075    6.0044 C   0  0  0  0  0  0  0  0  0  0  0  0
   26.0482    2.1631    6.4509 C   0  0  2  0  0  0  0  0  0  0  0  0
   26.8497    3.2906    5.8055 C   0  0  0  0  0  0  0  0  0  0  0  0
   28.2427    3.3380    6.4209 C   0  0  0  0  0  0  0  0  0  0  0  0
   28.9633    2.0034    6.2214 C   0  0  2  0  0  0  0  0  0  0  0  0
   28.1372    0.8514    6.8383 C   0  0  2  0  0  0  0  0  0  0  0  0
   28.8609   -0.5070    6.7797 C   0  0  0  0  0  0  0  0  0  0  0  0
   30.3345   -0.4688    7.2041 C   0  0  0  0  0  0  0  0  0  0  0  0
   31.0674    0.6406    6.4593 C   0  0  1  0  0  0  0  0  0  0  0  0
   30.3952    1.9987    6.7863 C   0  0  1  0  0  0  0  0  0  0  0  0
   31.3846    2.9901    6.1519 C   0  0  0  0  0  0  0  0  0  0  0  0
   32.7684    2.3766    6.4413 C   0  0  0  0  0  0  0  0  0  0  0  0
   32.5349    0.9067    6.8795 C   0  0  2  0  0  0  0  0  0  0  0  0
   33.4893    0.0109    6.3768 O   0  0  0  0  0  0  0  0  0  0  0  0
   30.3787    2.3087    8.2930 C   0  0  0  0  0  0  0  0  0  0  0  0
   31.0874    0.2970    4.9596 C   0  0  0  0  0  0  0  0  0  0  0  0
   25.7733    0.5472    4.2710 H   0  0  0  0  0  0  0  0  0  0  0  0
   27.4710    0.9679    4.1849 H   0  0  0  0  0  0  0  0  0  0  0  0
   26.9866   -0.6629    4.6359 H   0  0  0  0  0  0  0  0  0  0  0  0
   26.2548   -1.2489    6.8385 H   0  0  0  0  0  0  0  0  0  0  0  0
   25.9253   -0.0254    8.0649 H   0  0  0  0  0  0  0  0  0  0  0  0
   23.8219   -0.9313    7.2188 H   0  0  0  0  0  0  0  0  0  0  0  0
   24.2905   -0.5846    5.5526 H   0  0  0  0  0  0  0  0  0  0  0  0
   24.1497    3.1803    6.2478 H   0  0  0  0  0  0  0  0  0  0  0  0
   24.5091    2.0745    4.9229 H   0  0  0  0  0  0  0  0  0  0  0  0
   26.0530    2.3404    7.5338 H   0  0  0  0  0  0  0  0  0  0  0  0
   26.3415    4.2423    5.9763 H   0  0  0  0  0  0  0  0  0  0  0  0
   26.9136    3.1409    4.7268 H   0  0  0  0  0  0  0  0  0  0  0  0
   28.8261    4.1392    5.9639 H   0  0  0  0  0  0  0  0  0  0  0  0
   28.1383    3.5588    7.4837 H   0  0  0  0  0  0  0  0  0  0  0  0
   29.0407    1.8556    5.1428 H   0  0  0  0  0  0  0  0  0  0  0  0
   27.9906    1.0956    7.8956 H   0  0  0  0  0  0  0  0  0  0  0  0
   28.8035   -0.9101    5.7701 H   0  0  0  0  0  0  0  0  0  0  0  0
   28.3444   -1.2076    7.4377 H   0  0  0  0  0  0  0  0  0  0  0  0
   30.7929   -1.4357    6.9854 H   0  0  0  0  0  0  0  0  0  0  0  0
   30.4143   -0.3122    8.2794 H   0  0  0  0  0  0  0  0  0  0  0  0
   31.2091    3.0795    5.0796 H   0  0  0  0  0  0  0  0  0  0  0  0
   31.2955    3.9858    6.5836 H   0  0  0  0  0  0  0  0  0  0  0  0
   33.2917    2.9300    7.2193 H   0  0  0  0  0  0  0  0  0  0  0  0
   33.4047    2.3940    5.5546 H   0  0  0  0  0  0  0  0  0  0  0  0
   32.6388    0.7963    7.9616 H   0  0  0  0  0  0  0  0  0  0  0  0
   33.4993    0.0746    5.4150 H   0  0  0  0  0  0  0  0  0  0  0  0
   30.0210    3.3240    8.4449 H   0  0  0  0  0  0  0  0  0  0  0  0
   31.3750    2.2539    8.7170 H   0  0  0  0  0  0  0  0  0  0  0  0
   29.7361    1.6390    8.8531 H   0  0  0  0  0  0  0  0  0  0  0  0
   31.5457   -0.6834    4.8340 H   0  0  0  0  0  0  0  0  0  0  0  0
   31.6575    1.0231    4.3857 H   0  0  0  0  0  0  0  0  0  0  0  0
   30.0931    0.2420    4.5335 H   0  0  0  0  0  0  0  0  0  0  0  0
  2  1  1  6
  2  3  1  0
  3  4  1  0
  4  5  1  0
  5  6  2  0
  5  7  1  0
  7  8  1  0
  8  9  1  0
  9 10  1  0
 10 11  1  0
 11 12  1  0
 12 13  1  0
 13 14  1  0
 14 15  1  0
 15 16  1  0
 16 17  1  0
 17 18  1  0
 18 19  1  0
 19 20  1  0
 16 21  1  1
 15 22  1  6
  8  2  1  0
 12  2  1  0
 16 11  1  0
 19 15  1  0
  1 23  1  0
  1 24  1  0
  1 25  1  0
  3 26  1  0
  3 27  1  0
  4 28  1  0
  4 29  1  0
  7 30  1  0
  7 31  1  0
  8 32  1  1
  9 33  1  0
  9 34  1  0
 10 35  1  0
 10 36  1  0
 11 37  1  6
 12 38  1  1
 13 39  1  0
 13 40  1  0
 14 41  1  0
 14 42  1  0
 17 43  1  0
 17 44  1  0
 18 45  1  0
 18 46  1  0
 19 47  1  1
 20 48  1  0
 21 49  1  0
 21 50  1  0
 21 51  1  0
 22 52  1  0
 22 53  1  0
 22 54  1  0
M  END
$$$$
