
     RDKit          3D

 54 57  0  0  0  0  0  0  0  0999 V2000
   29.8198    3.9931    9.7690 C   0  0  0  0  0  0  0  0  0  0  0  0
   29.6491    3.0788    8.6418 C   0  0  2  0  0  0  0  0  0  0  0  0
   30.3639    1.7034    8.9606 C   0  0  0  0  0  0  0  0  0  0  0  0
   31.8743    1.7099    8.9470 C   0  0  0  0  0  0  0  0  0  0  0  0
   32.2928    3.1058    8.8910 C   0  0  0  0  0  0  0  0  0  0  0  0
   33.0485    3.5338    9.7590 O   0  0  0  0  0  0  0  0  0  0  0  0
   31.7577    3.9085    7.7701 C   0  0  0  0  0  0  0  0  0  0  0  0
   30.3535    3.4456    7.3502 C   0  0  2  0  0  0  0  0  0  0  0  0
   29.6645    4.6081    6.6832 C   0  0  0  0  0  0  0  0  0  0  0  0
   28.2258    4.1990    6.3686 C   0  0  0  0  0  0  0  0  0  0  0  0
   27.5219    3.8036    7.6107 C   0  0  2  0  0  0  0  0  0  0  0  0
   28.2451    2.6426    8.3147 C   0  0  2  0  0  0  0  0  0  0  0  0
   27.5577    2.4167    9.6838 C   0  0  0  0  0  0  0  0  0  0  0  0
   26.1190    1.9050    9.4503 C   0  0  0  0  0  0  0  0  0  0  0  0
   25.4583    2.9842    8.6496 C   0  0  2  0  0  0  0  0  0  0  0  0
   25.2107    4.1267    9.6219 C   0  0  0  0  0  0  0  0  0  0  0  0
   24.0653    2.6563    8.1121 C   0  0  1  0  0  0  0  0  0  0  0  0
   23.1635    2.7325    9.1216 O   0  0  0  0  0  0  0  0  0  0  0  0
   23.8375    3.8899    7.1867 C   0  0  0  0  0  0  0  0  0  0  0  0
   25.1958    4.5214    7.0400 C   0  0  0  0  0  0  0  0  0  0  0  0
   26.1335    3.3423    7.4272 C   0  0  1  0  0  0  0  0  0  0  0  0
   25.9884    2.2808    6.3598 C   0  0  0  0  0  0  0  0  0  0  0  0
   28.9422    4.6604    9.9883 H   0  0  0  0  0  0  0  0  0  0  0  0
   30.6575    4.7156    9.6728 H   0  0  0  0  0  0  0  0  0  0  0  0
   29.9692    3.4391   10.7283 H   0  0  0  0  0  0  0  0  0  0  0  0
   30.0032    1.3410    9.9402 H   0  0  0  0  0  0  0  0  0  0  0  0
   30.0202    0.9819    8.1795 H   0  0  0  0  0  0  0  0  0  0  0  0
   32.2837    1.1748    9.8178 H   0  0  0  0  0  0  0  0  0  0  0  0
   32.2966    1.1899    8.0483 H   0  0  0  0  0  0  0  0  0  0  0  0
   31.7952    4.9889    7.9703 H   0  0  0  0  0  0  0  0  0  0  0  0
   32.4110    3.6609    6.8953 H   0  0  0  0  0  0  0  0  0  0  0  0
   30.4422    2.5786    6.7265 H   0  0  0  0  0  0  0  0  0  0  0  0
   30.1712    4.8019    5.7445 H   0  0  0  0  0  0  0  0  0  0  0  0
   29.6749    5.4830    7.3206 H   0  0  0  0  0  0  0  0  0  0  0  0
   27.7455    5.1459    6.0137 H   0  0  0  0  0  0  0  0  0  0  0  0
   28.1966    3.4718    5.5764 H   0  0  0  0  0  0  0  0  0  0  0  0
   27.4847    4.6486    8.3435 H   0  0  0  0  0  0  0  0  0  0  0  0
   28.2595    1.7322    7.7532 H   0  0  0  0  0  0  0  0  0  0  0  0
   27.5675    3.3526   10.2091 H   0  0  0  0  0  0  0  0  0  0  0  0
   28.0810    1.6117   10.2233 H   0  0  0  0  0  0  0  0  0  0  0  0
   25.6358    1.8815   10.4417 H   0  0  0  0  0  0  0  0  0  0  0  0
   26.0987    0.8979    9.0433 H   0  0  0  0  0  0  0  0  0  0  0  0
   25.3826    5.1229    9.2769 H   0  0  0  0  0  0  0  0  0  0  0  0
   25.7716    3.9949   10.5898 H   0  0  0  0  0  0  0  0  0  0  0  0
   24.1330    4.0592    9.9951 H   0  0  0  0  0  0  0  0  0  0  0  0
   24.0695    1.7217    7.5337 H   0  0  0  0  0  0  0  0  0  0  0  0
   22.4395    3.4010    8.9557 H   0  0  0  0  0  0  0  0  0  0  0  0
   23.0852    4.5666    7.6492 H   0  0  0  0  0  0  0  0  0  0  0  0
   23.4690    3.4729    6.2440 H   0  0  0  0  0  0  0  0  0  0  0  0
   25.4016    4.5993    5.9167 H   0  0  0  0  0  0  0  0  0  0  0  0
   25.4021    5.4589    7.4516 H   0  0  0  0  0  0  0  0  0  0  0  0
   26.8508    2.2486    5.7029 H   0  0  0  0  0  0  0  0  0  0  0  0
   25.9431    1.2529    6.8276 H   0  0  0  0  0  0  0  0  0  0  0  0
   25.0510    2.3907    5.8149 H   0  0  0  0  0  0  0  0  0  0  0  0
  2  1  1  1
  2  3  1  0
  3  4  1  0
  4  5  1  0
  5  6  2  0
  5  7  1  0
  7  8  1  0
  8  9  1  0
  9 10  1  0
 10 11  1  0
 11 12  1  0
 12 13  1  0
 13 14  1  0
 14 15  1  0
 15 16  1  1
 15 17  1  0
 17 18  1  0
 17 19  1  0
 19 20  1  0
 20 21  1  0
 21 22  1  6
  8  2  1  0
 21 11  1  0
 12  2  1  0
 21 15  1  0
  1 23  1  0
  1 24  1  0
  1 25  1  0
  3 26  1  0
  3 27  1  0
  4 28  1  0
  4 29  1  0
  7 30  1  0
  7 31  1  0
  8 32  1  6
  9 33  1  0
  9 34  1  0
 10 35  1  0
 10 36  1  0
 11 37  1  1
 12 38  1  6
 13 39  1  0
 13 40  1  0
 14 41  1  0
 14 42  1  0
 16 43  1  0
 16 44  1  0
 16 45  1  0
 17 46  1  6
 18 47  1  0
 19 48  1  0
 19 49  1  0
 20 50  1  0
 20 51  1  0
 22 52  1  0
 22 53  1  0
 22 54  1  0
M  END
$$$$
