
     RDKit          3D

 54 57  0  0  0  0  0  0  0  0999 V2000
   29.8431    3.6361    9.8869 C   0  0  0  0  0  0  0  0  0  0  0  0
   29.3906    3.1187    8.5951 C   0  0  2  0  0  0  0  0  0  0  0  0
   30.0966    1.6674    8.5864 C   0  0  0  0  0  0  0  0  0  0  0  0
   31.5044    1.6055    8.5591 C   0  0  0  0  0  0  0  0  0  0  0  0
   32.2790    2.8002    8.2194 C   0  0  0  0  0  0  0  0  0  0  0  0
   33.4324    2.8067    8.2466 O   0  0  0  0  0  0  0  0  0  0  0  0
   31.5329    3.9917    7.7669 C   0  0  0  0  0  0  0  0  0  0  0  0
   30.1474    3.7156    7.4054 C   0  0  2  0  0  0  0  0  0  0  0  0
   29.4154    4.8727    6.8459 C   0  0  0  0  0  0  0  0  0  0  0  0
   27.9916    4.3769    6.4255 C   0  0  0  0  0  0  0  0  0  0  0  0
   27.3124    3.8833    7.6450 C   0  0  2  0  0  0  0  0  0  0  0  0
   28.0289    2.6881    8.2974 C   0  0  2  0  0  0  0  0  0  0  0  0
   27.2749    2.7684    9.7701 C   0  0  0  0  0  0  0  0  0  0  0  0
   25.8431    2.2334    9.5328 C   0  0  0  0  0  0  0  0  0  0  0  0
   25.2408    3.1343    8.5867 C   0  0  2  0  0  0  0  0  0  0  0  0
   24.7341    4.4631    9.2260 C   0  0  0  0  0  0  0  0  0  0  0  0
   23.8718    2.5933    8.0365 C   0  0  1  0  0  0  0  0  0  0  0  0
   22.8844    2.8566    8.9443 O   0  0  0  0  0  0  0  0  0  0  0  0
   23.6313    3.5714    6.8558 C   0  0  0  0  0  0  0  0  0  0  0  0
   24.9665    4.3060    6.7007 C   0  0  0  0  0  0  0  0  0  0  0  0
   25.9223    3.3818    7.3670 C   0  0  1  0  0  0  0  0  0  0  0  0
   26.0401    2.1030    6.5143 C   0  0  0  0  0  0  0  0  0  0  0  0
   29.1553    3.6149   10.7377 H   0  0  0  0  0  0  0  0  0  0  0  0
   30.3364    4.6704    9.8863 H   0  0  0  0  0  0  0  0  0  0  0  0
   30.7170    3.0283   10.3198 H   0  0  0  0  0  0  0  0  0  0  0  0
   29.7299    1.3255    7.5731 H   0  0  0  0  0  0  0  0  0  0  0  0
   29.5479    1.0605    9.2615 H   0  0  0  0  0  0  0  0  0  0  0  0
   31.8768    0.8538    7.6795 H   0  0  0  0  0  0  0  0  0  0  0  0
   31.9713    1.0880    9.4218 H   0  0  0  0  0  0  0  0  0  0  0  0
   31.6665    4.9017    8.3919 H   0  0  0  0  0  0  0  0  0  0  0  0
   31.9988    4.2622    6.7226 H   0  0  0  0  0  0  0  0  0  0  0  0
   30.0738    2.9354    6.6206 H   0  0  0  0  0  0  0  0  0  0  0  0
   29.9023    5.4453    6.1626 H   0  0  0  0  0  0  0  0  0  0  0  0
   29.1187    5.5265    7.7914 H   0  0  0  0  0  0  0  0  0  0  0  0
   27.3962    5.1379    5.9160 H   0  0  0  0  0  0  0  0  0  0  0  0
   28.2538    3.5299    5.6839 H   0  0  0  0  0  0  0  0  0  0  0  0
   27.3260    4.7018    8.3817 H   0  0  0  0  0  0  0  0  0  0  0  0
   27.7756    1.8000    7.9345 H   0  0  0  0  0  0  0  0  0  0  0  0
   27.7776    2.0614   10.4042 H   0  0  0  0  0  0  0  0  0  0  0  0
   27.1997    3.7976   10.0443 H   0  0  0  0  0  0  0  0  0  0  0  0
   25.3300    2.3542   10.5272 H   0  0  0  0  0  0  0  0  0  0  0  0
   25.8708    1.2039    9.2727 H   0  0  0  0  0  0  0  0  0  0  0  0
   24.6432    4.3343   10.2817 H   0  0  0  0  0  0  0  0  0  0  0  0
   25.4252    5.2837    8.9896 H   0  0  0  0  0  0  0  0  0  0  0  0
   23.7715    4.7780    8.8210 H   0  0  0  0  0  0  0  0  0  0  0  0
   23.9955    1.5502    7.6937 H   0  0  0  0  0  0  0  0  0  0  0  0
   22.0559    3.2044    8.4841 H   0  0  0  0  0  0  0  0  0  0  0  0
   22.8365    4.2645    7.0466 H   0  0  0  0  0  0  0  0  0  0  0  0
   23.4476    2.9159    5.9788 H   0  0  0  0  0  0  0  0  0  0  0  0
   24.9241    5.3509    6.9929 H   0  0  0  0  0  0  0  0  0  0  0  0
   25.2055    4.2105    5.5672 H   0  0  0  0  0  0  0  0  0  0  0  0
   27.0222    2.0409    6.0774 H   0  0  0  0  0  0  0  0  0  0  0  0
   25.9604    1.2414    7.2088 H   0  0  0  0  0  0  0  0  0  0  0  0
   25.2462    2.0201    5.7832 H   0  0  0  0  0  0  0  0  0  0  0  0
  2  1  1  1
  2  3  1  0
  3  4  1  0
  4  5  1  0
  5  6  2  0
  5  7  1  0
  7  8  1  0
  8  9  1  0
  9 10  1  0
 10 11  1  0
 11 12  1  0
 12 13  1  0
 13 14  1  0
 14 15  1  0
 15 16  1  1
 15 17  1  0
 17 18  1  0
 17 19  1  0
 19 20  1  0
 20 21  1  0
 21 22  1  6
  8  2  1  0
 21 11  1  0
 12  2  1  0
 21 15  1  0
  1 23  1  0
  1 24  1  0
  1 25  1  0
  3 26  1  0
  3 27  1  0
  4 28  1  0
  4 29  1  0
  7 30  1  0
  7 31  1  0
  8 32  1  6
  9 33  1  0
  9 34  1  0
 10 35  1  0
 10 36  1  0
 11 37  1  1
 12 38  1  6
 13 39  1  0
 13 40  1  0
 14 41  1  0
 14 42  1  0
 16 43  1  0
 16 44  1  0
 16 45  1  0
 17 46  1  6
 18 47  1  0
 19 48  1  0
 19 49  1  0
 20 50  1  0
 20 51  1  0
 22 52  1  0
 22 53  1  0
 22 54  1  0
M  END
$$$$
