
     RDKit          3D

 54 57  0  0  0  0  0  0  0  0999 V2000
   29.9425    3.9423    9.7976 C   0  0  0  0  0  0  0  0  0  0  0  0
   29.7686    3.0923    8.6360 C   0  0  2  0  0  0  0  0  0  0  0  0
   30.4475    1.6798    8.9235 C   0  0  0  0  0  0  0  0  0  0  0  0
   31.9402    1.6448    8.9097 C   0  0  0  0  0  0  0  0  0  0  0  0
   32.3767    3.0399    8.8744 C   0  0  0  0  0  0  0  0  0  0  0  0
   33.1251    3.4295    9.7778 O   0  0  0  0  0  0  0  0  0  0  0  0
   31.9063    3.8867    7.7738 C   0  0  0  0  0  0  0  0  0  0  0  0
   30.4931    3.4749    7.3433 C   0  0  2  0  0  0  0  0  0  0  0  0
   29.7754    4.6068    6.6751 C   0  0  0  0  0  0  0  0  0  0  0  0
   28.3637    4.1734    6.3531 C   0  0  0  0  0  0  0  0  0  0  0  0
   27.6388    3.8106    7.5957 C   0  0  2  0  0  0  0  0  0  0  0  0
   28.3565    2.6468    8.3163 C   0  0  2  0  0  0  0  0  0  0  0  0
   27.6699    2.4199    9.6756 C   0  0  0  0  0  0  0  0  0  0  0  0
   26.2310    1.9106    9.4277 C   0  0  0  0  0  0  0  0  0  0  0  0
   25.5584    2.9762    8.6146 C   0  0  2  0  0  0  0  0  0  0  0  0
   25.3162    4.1854    9.5564 C   0  0  0  0  0  0  0  0  0  0  0  0
   24.1730    2.6419    8.0966 C   0  0  1  0  0  0  0  0  0  0  0  0
   23.2346    2.6165    9.1072 O   0  0  0  0  0  0  0  0  0  0  0  0
   23.9379    3.8409    7.1403 C   0  0  0  0  0  0  0  0  0  0  0  0
   25.3130    4.5166    7.0152 C   0  0  0  0  0  0  0  0  0  0  0  0
   26.2434    3.3381    7.4076 C   0  0  1  0  0  0  0  0  0  0  0  0
   26.1618    2.2720    6.3609 C   0  0  0  0  0  0  0  0  0  0  0  0
   30.8000    4.6717    9.7283 H   0  0  0  0  0  0  0  0  0  0  0  0
   30.1360    3.3910   10.7740 H   0  0  0  0  0  0  0  0  0  0  0  0
   29.0757    4.6615   10.0107 H   0  0  0  0  0  0  0  0  0  0  0  0
   30.0283    1.3178    9.8801 H   0  0  0  0  0  0  0  0  0  0  0  0
   30.0739    1.0293    8.0797 H   0  0  0  0  0  0  0  0  0  0  0  0
   32.3579    1.0483    9.7517 H   0  0  0  0  0  0  0  0  0  0  0  0
   32.3089    1.1925    7.9298 H   0  0  0  0  0  0  0  0  0  0  0  0
   32.5602    3.6781    6.8717 H   0  0  0  0  0  0  0  0  0  0  0  0
   31.9902    4.9780    7.9348 H   0  0  0  0  0  0  0  0  0  0  0  0
   30.5515    2.6047    6.7096 H   0  0  0  0  0  0  0  0  0  0  0  0
   29.6684    5.4782    7.3998 H   0  0  0  0  0  0  0  0  0  0  0  0
   30.3192    4.9551    5.7724 H   0  0  0  0  0  0  0  0  0  0  0  0
   28.5278    3.2957    5.6472 H   0  0  0  0  0  0  0  0  0  0  0  0
   27.8899    5.0026    5.7959 H   0  0  0  0  0  0  0  0  0  0  0  0
   27.7192    4.6621    8.3016 H   0  0  0  0  0  0  0  0  0  0  0  0
   28.3372    1.7915    7.7142 H   0  0  0  0  0  0  0  0  0  0  0  0
   28.1703    1.6124   10.1760 H   0  0  0  0  0  0  0  0  0  0  0  0
   27.6805    3.3412   10.2348 H   0  0  0  0  0  0  0  0  0  0  0  0
   25.7526    1.8896   10.4216 H   0  0  0  0  0  0  0  0  0  0  0  0
   26.2398    0.9020    9.0060 H   0  0  0  0  0  0  0  0  0  0  0  0
   24.2544    4.4801    9.5634 H   0  0  0  0  0  0  0  0  0  0  0  0
   25.9443    5.0278    9.3336 H   0  0  0  0  0  0  0  0  0  0  0  0
   25.5661    3.8923   10.6195 H   0  0  0  0  0  0  0  0  0  0  0  0
   24.1717    1.6775    7.6132 H   0  0  0  0  0  0  0  0  0  0  0  0
   22.3629    3.0011    8.8863 H   0  0  0  0  0  0  0  0  0  0  0  0
   23.2455    4.5262    7.6730 H   0  0  0  0  0  0  0  0  0  0  0  0
   23.5579    3.4561    6.1922 H   0  0  0  0  0  0  0  0  0  0  0  0
   25.4311    4.6686    5.9040 H   0  0  0  0  0  0  0  0  0  0  0  0
   25.4571    5.4175    7.5328 H   0  0  0  0  0  0  0  0  0  0  0  0
   26.8817    2.3466    5.5301 H   0  0  0  0  0  0  0  0  0  0  0  0
   26.2711    1.2507    6.8126 H   0  0  0  0  0  0  0  0  0  0  0  0
   25.1330    2.2702    5.9469 H   0  0  0  0  0  0  0  0  0  0  0  0
  2  1  1  1
  2  3  1  0
  3  4  1  0
  4  5  1  0
  5  6  2  0
  5  7  1  0
  7  8  1  0
  8  9  1  0
  9 10  1  0
 10 11  1  0
 11 12  1  0
 12 13  1  0
 13 14  1  0
 14 15  1  0
 15 16  1  1
 15 17  1  0
 17 18  1  0
 17 19  1  0
 19 20  1  0
 20 21  1  0
 21 22  1  6
  8  2  1  0
 21 11  1  0
 12  2  1  0
 21 15  1  0
  1 23  1  0
  1 24  1  0
  1 25  1  0
  3 26  1  0
  3 27  1  0
  4 28  1  0
  4 29  1  0
  7 30  1  0
  7 31  1  0
  8 32  1  6
  9 33  1  0
  9 34  1  0
 10 35  1  0
 10 36  1  0
 11 37  1  1
 12 38  1  6
 13 39  1  0
 13 40  1  0
 14 41  1  0
 14 42  1  0
 16 43  1  0
 16 44  1  0
 16 45  1  0
 17 46  1  6
 18 47  1  0
 19 48  1  0
 19 49  1  0
 20 50  1  0
 20 51  1  0
 22 52  1  0
 22 53  1  0
 22 54  1  0
M  END
$$$$
