
     RDKit          3D

 54 57  0  0  0  0  0  0  0  0999 V2000
   29.8094    3.8920    9.7993 C   0  0  0  0  0  0  0  0  0  0  0  0
   29.6989    3.0126    8.6319 C   0  0  2  0  0  0  0  0  0  0  0  0
   30.4140    1.6450    8.8902 C   0  0  0  0  0  0  0  0  0  0  0  0
   31.9219    1.6498    8.8766 C   0  0  0  0  0  0  0  0  0  0  0  0
   32.3285    3.0497    8.7999 C   0  0  0  0  0  0  0  0  0  0  0  0
   33.1009    3.5114    9.6582 O   0  0  0  0  0  0  0  0  0  0  0  0
   31.8160    3.8659    7.7086 C   0  0  0  0  0  0  0  0  0  0  0  0
   30.3811    3.3823    7.3453 C   0  0  2  0  0  0  0  0  0  0  0  0
   29.7010    4.5548    6.6581 C   0  0  0  0  0  0  0  0  0  0  0  0
   28.2910    4.1512    6.3434 C   0  0  0  0  0  0  0  0  0  0  0  0
   27.5613    3.7821    7.5944 C   0  0  2  0  0  0  0  0  0  0  0  0
   28.2770    2.5952    8.3054 C   0  0  2  0  0  0  0  0  0  0  0  0
   27.5764    2.4288    9.6737 C   0  0  0  0  0  0  0  0  0  0  0  0
   26.1422    1.9361    9.4543 C   0  0  0  0  0  0  0  0  0  0  0  0
   25.4749    2.9745    8.6165 C   0  0  2  0  0  0  0  0  0  0  0  0
   25.2874    4.2282    9.5780 C   0  0  0  0  0  0  0  0  0  0  0  0
   24.0869    2.6755    8.1435 C   0  0  1  0  0  0  0  0  0  0  0  0
   23.1913    2.8078    9.1652 O   0  0  0  0  0  0  0  0  0  0  0  0
   23.8744    3.8754    7.1407 C   0  0  0  0  0  0  0  0  0  0  0  0
   25.2409    4.4909    6.9764 C   0  0  0  0  0  0  0  0  0  0  0  0
   26.1695    3.3103    7.3876 C   0  0  1  0  0  0  0  0  0  0  0  0
   26.0004    2.2372    6.3850 C   0  0  0  0  0  0  0  0  0  0  0  0
   30.7242    4.4947    9.9328 H   0  0  0  0  0  0  0  0  0  0  0  0
   29.7147    3.2974   10.7602 H   0  0  0  0  0  0  0  0  0  0  0  0
   28.9729    4.6782    9.8128 H   0  0  0  0  0  0  0  0  0  0  0  0
   30.0357    1.2242    9.8646 H   0  0  0  0  0  0  0  0  0  0  0  0
   30.0757    0.9923    8.0739 H   0  0  0  0  0  0  0  0  0  0  0  0
   32.3399    1.0377    8.0634 H   0  0  0  0  0  0  0  0  0  0  0  0
   32.3163    1.1910    9.8010 H   0  0  0  0  0  0  0  0  0  0  0  0
   31.7867    4.9745    7.9350 H   0  0  0  0  0  0  0  0  0  0  0  0
   32.4936    3.7928    6.8215 H   0  0  0  0  0  0  0  0  0  0  0  0
   30.5254    2.5228    6.7069 H   0  0  0  0  0  0  0  0  0  0  0  0
   30.2288    4.7674    5.7354 H   0  0  0  0  0  0  0  0  0  0  0  0
   29.7352    5.4588    7.3016 H   0  0  0  0  0  0  0  0  0  0  0  0
   28.2794    3.4256    5.5447 H   0  0  0  0  0  0  0  0  0  0  0  0
   27.8194    5.0925    5.9534 H   0  0  0  0  0  0  0  0  0  0  0  0
   27.5823    4.6475    8.2942 H   0  0  0  0  0  0  0  0  0  0  0  0
   28.2828    1.7536    7.6704 H   0  0  0  0  0  0  0  0  0  0  0  0
   28.0370    1.6681   10.2530 H   0  0  0  0  0  0  0  0  0  0  0  0
   27.5435    3.3779   10.1724 H   0  0  0  0  0  0  0  0  0  0  0  0
   26.0516    0.9214    9.0968 H   0  0  0  0  0  0  0  0  0  0  0  0
   25.7115    1.9733   10.4685 H   0  0  0  0  0  0  0  0  0  0  0  0
   25.8635    4.0989   10.5062 H   0  0  0  0  0  0  0  0  0  0  0  0
   25.5409    5.1594    9.1774 H   0  0  0  0  0  0  0  0  0  0  0  0
   24.2325    4.1901    9.9099 H   0  0  0  0  0  0  0  0  0  0  0  0
   24.0205    1.7080    7.6088 H   0  0  0  0  0  0  0  0  0  0  0  0
   22.3881    2.2241    9.0846 H   0  0  0  0  0  0  0  0  0  0  0  0
   23.4064    3.4317    6.2673 H   0  0  0  0  0  0  0  0  0  0  0  0
   23.2277    4.6258    7.6073 H   0  0  0  0  0  0  0  0  0  0  0  0
   25.4484    5.4263    7.3590 H   0  0  0  0  0  0  0  0  0  0  0  0
   25.3980    4.5067    5.8511 H   0  0  0  0  0  0  0  0  0  0  0  0
   26.7366    2.2988    5.5499 H   0  0  0  0  0  0  0  0  0  0  0  0
   25.0178    2.3419    5.9080 H   0  0  0  0  0  0  0  0  0  0  0  0
   26.1275    1.2240    6.7937 H   0  0  0  0  0  0  0  0  0  0  0  0
  2  1  1  1
  2  3  1  0
  3  4  1  0
  4  5  1  0
  5  6  2  0
  5  7  1  0
  7  8  1  0
  8  9  1  0
  9 10  1  0
 10 11  1  0
 11 12  1  0
 12 13  1  0
 13 14  1  0
 14 15  1  0
 15 16  1  1
 15 17  1  0
 17 18  1  0
 17 19  1  0
 19 20  1  0
 20 21  1  0
 21 22  1  6
  8  2  1  0
 21 11  1  0
 12  2  1  0
 21 15  1  0
  1 23  1  0
  1 24  1  0
  1 25  1  0
  3 26  1  0
  3 27  1  0
  4 28  1  0
  4 29  1  0
  7 30  1  0
  7 31  1  0
  8 32  1  6
  9 33  1  0
  9 34  1  0
 10 35  1  0
 10 36  1  0
 11 37  1  1
 12 38  1  6
 13 39  1  0
 13 40  1  0
 14 41  1  0
 14 42  1  0
 16 43  1  0
 16 44  1  0
 16 45  1  0
 17 46  1  6
 18 47  1  0
 19 48  1  0
 19 49  1  0
 20 50  1  0
 20 51  1  0
 22 52  1  0
 22 53  1  0
 22 54  1  0
M  END
$$$$
