
     RDKit          3D

 54 57  0  0  0  0  0  0  0  0999 V2000
   29.4566    4.1826    9.8766 C   0  0  0  0  0  0  0  0  0  0  0  0
   29.3582    3.0118    8.9491 C   0  0  2  0  0  0  0  0  0  0  0  0
   30.2635    1.8769    9.4911 C   0  0  0  0  0  0  0  0  0  0  0  0
   31.7696    2.1545    9.4304 C   0  0  0  0  0  0  0  0  0  0  0  0
   31.9531    3.5444    8.9826 C   0  0  0  0  0  0  0  0  0  0  0  0
   32.6721    4.3052    9.6697 O   0  0  0  0  0  0  0  0  0  0  0  0
   31.3192    4.0729    7.7259 C   0  0  0  0  0  0  0  0  0  0  0  0
   30.0351    3.2985    7.5976 C   0  0  2  0  0  0  0  0  0  0  0  0
   29.1483    3.4229    6.3792 C   0  0  0  0  0  0  0  0  0  0  0  0
   28.0947    4.4477    6.8005 C   0  0  0  0  0  0  0  0  0  0  0  0
   27.3274    3.8472    7.9195 C   0  0  2  0  0  0  0  0  0  0  0  0
   27.9934    2.6586    8.5922 C   0  0  2  0  0  0  0  0  0  0  0  0
   27.2010    2.2114    9.8073 C   0  0  0  0  0  0  0  0  0  0  0  0
   25.7665    1.8100    9.4127 C   0  0  0  0  0  0  0  0  0  0  0  0
   25.1294    2.9947    8.7684 C   0  0  2  0  0  0  0  0  0  0  0  0
   24.9903    4.0279    9.8821 C   0  0  0  0  0  0  0  0  0  0  0  0
   23.7839    2.9057    8.1696 C   0  0  1  0  0  0  0  0  0  0  0  0
   22.8683    2.9648    9.2369 O   0  0  0  0  0  0  0  0  0  0  0  0
   23.6953    4.2851    7.4350 C   0  0  0  0  0  0  0  0  0  0  0  0
   25.1092    4.8150    7.5048 C   0  0  0  0  0  0  0  0  0  0  0  0
   25.9238    3.4531    7.5977 C   0  0  1  0  0  0  0  0  0  0  0  0
   25.7331    2.8077    6.3470 C   0  0  0  0  0  0  0  0  0  0  0  0
   30.2691    4.0495   10.6175 H   0  0  0  0  0  0  0  0  0  0  0  0
   29.6309    5.1373    9.3415 H   0  0  0  0  0  0  0  0  0  0  0  0
   28.5015    4.2681   10.4750 H   0  0  0  0  0  0  0  0  0  0  0  0
   30.0187    1.8642   10.5968 H   0  0  0  0  0  0  0  0  0  0  0  0
   30.0801    0.9164    9.0602 H   0  0  0  0  0  0  0  0  0  0  0  0
   32.1953    1.4657    8.6951 H   0  0  0  0  0  0  0  0  0  0  0  0
   32.2202    1.9572   10.3842 H   0  0  0  0  0  0  0  0  0  0  0  0
   32.0114    3.7674    6.9233 H   0  0  0  0  0  0  0  0  0  0  0  0
   31.1786    5.1527    7.7730 H   0  0  0  0  0  0  0  0  0  0  0  0
   30.4969    2.2215    7.3837 H   0  0  0  0  0  0  0  0  0  0  0  0
   28.7532    2.5043    6.0543 H   0  0  0  0  0  0  0  0  0  0  0  0
   29.7473    3.9009    5.5807 H   0  0  0  0  0  0  0  0  0  0  0  0
   27.4298    4.5852    5.9171 H   0  0  0  0  0  0  0  0  0  0  0  0
   28.6197    5.3880    7.0603 H   0  0  0  0  0  0  0  0  0  0  0  0
   27.2524    4.6442    8.7182 H   0  0  0  0  0  0  0  0  0  0  0  0
   27.9603    1.7960    7.8961 H   0  0  0  0  0  0  0  0  0  0  0  0
   27.6776    1.2489   10.0905 H   0  0  0  0  0  0  0  0  0  0  0  0
   27.2142    2.8572   10.6570 H   0  0  0  0  0  0  0  0  0  0  0  0
   25.1974    1.4332   10.2537 H   0  0  0  0  0  0  0  0  0  0  0  0
   25.9397    0.9623    8.6657 H   0  0  0  0  0  0  0  0  0  0  0  0
   24.6459    3.3850   10.7536 H   0  0  0  0  0  0  0  0  0  0  0  0
   24.1568    4.7280    9.7250 H   0  0  0  0  0  0  0  0  0  0  0  0
   25.9049    4.4534   10.1971 H   0  0  0  0  0  0  0  0  0  0  0  0
   23.4970    2.0892    7.5807 H   0  0  0  0  0  0  0  0  0  0  0  0
   22.8156    2.0122    9.6183 H   0  0  0  0  0  0  0  0  0  0  0  0
   23.0737    4.9765    8.0126 H   0  0  0  0  0  0  0  0  0  0  0  0
   23.4028    4.1303    6.3847 H   0  0  0  0  0  0  0  0  0  0  0  0
   25.3838    5.2931    6.5378 H   0  0  0  0  0  0  0  0  0  0  0  0
   25.3281    5.4630    8.3309 H   0  0  0  0  0  0  0  0  0  0  0  0
   26.5901    2.2179    5.9275 H   0  0  0  0  0  0  0  0  0  0  0  0
   24.8951    2.0125    6.2889 H   0  0  0  0  0  0  0  0  0  0  0  0
   25.4800    3.5184    5.5512 H   0  0  0  0  0  0  0  0  0  0  0  0
  2  1  1  1
  2  3  1  0
  3  4  1  0
  4  5  1  0
  5  6  2  0
  5  7  1  0
  7  8  1  0
  8  9  1  0
  9 10  1  0
 10 11  1  0
 11 12  1  0
 12 13  1  0
 13 14  1  0
 14 15  1  0
 15 16  1  1
 15 17  1  0
 17 18  1  0
 17 19  1  0
 19 20  1  0
 20 21  1  0
 21 22  1  6
  8  2  1  0
 21 11  1  0
 12  2  1  0
 21 15  1  0
  1 23  1  0
  1 24  1  0
  1 25  1  0
  3 26  1  0
  3 27  1  0
  4 28  1  0
  4 29  1  0
  7 30  1  0
  7 31  1  0
  8 32  1  6
  9 33  1  0
  9 34  1  0
 10 35  1  0
 10 36  1  0
 11 37  1  1
 12 38  1  6
 13 39  1  0
 13 40  1  0
 14 41  1  0
 14 42  1  0
 16 43  1  0
 16 44  1  0
 16 45  1  0
 17 46  1  6
 18 47  1  0
 19 48  1  0
 19 49  1  0
 20 50  1  0
 20 51  1  0
 22 52  1  0
 22 53  1  0
 22 54  1  0
M  END
$$$$
