
     RDKit          3D

 59 61  0  0  0  0  0  0  0  0999 V2000
   21.7005    4.9454    0.7710 C   0  0  0  0  0  0  0  0  0  0  0  0
   22.0421    3.6308    1.2249 O   0  0  0  0  0  0  0  0  0  0  0  0
   23.1451    3.4351    2.0552 C   0  0  0  0  0  0  0  0  0  0  0  0
   23.7938    4.4780    2.3618 O   0  0  0  0  0  0  0  0  0  0  0  0
   23.5341    2.0896    2.5481 C   0  0  1  0  0  0  0  0  0  0  0  0
   24.7231    2.2674    3.3822 N   0  0  0  0  0  0  0  0  0  0  0  0
   25.9278    1.6232    3.0781 C   0  0  0  0  0  0  0  0  0  0  0  0
   25.8921    0.8741    2.0309 O   0  0  0  0  0  0  0  0  0  0  0  0
   27.1809    1.6778    3.7638 C   0  0  0  0  0  0  0  0  0  0  0  0
   28.1938    0.8122    3.4700 N   0  0  0  0  0  0  0  0  0  0  0  0
   29.2457    1.0690    4.2223 N   0  0  0  0  0  0  0  0  0  0  0  0
   30.5519    0.3443    4.1978 C   0  0  0  0  0  0  0  0  0  0  0  0
   31.4730    0.9142    3.2688 C   0  0  0  0  0  0  0  0  0  0  0  0
   32.8956    0.2094    3.2579 C   0  0  0  0  0  0  0  0  0  0  0  0
   33.3291   -1.1011    2.4068 C   0  0  0  0  0  0  0  0  0  0  0  0
   32.1410   -1.7701    2.8136 C   0  0  0  0  0  0  0  0  0  0  0  0
   31.2741   -0.7927    1.9122 C   0  0  0  0  0  0  0  0  0  0  0  0
   31.4426    0.8168    1.8542 C   0  0  0  0  0  0  0  0  0  0  0  0
   29.0077    2.1002    5.0479 C   0  0  0  0  0  0  0  0  0  0  0  0
   29.7666    2.7327    5.9898 C   0  0  0  0  0  0  0  0  0  0  0  0
   29.2478    3.8032    6.7010 C   0  0  0  0  0  0  0  0  0  0  0  0
   27.9542    4.1696    6.3974 C   0  0  0  0  0  0  0  0  0  0  0  0
   27.1915    3.5314    5.4488 C   0  0  0  0  0  0  0  0  0  0  0  0
   27.6947    2.4774    4.7464 C   0  0  0  0  0  0  0  0  0  0  0  0
   22.4159    1.4388    3.3308 C   0  0  0  0  0  0  0  0  0  0  0  0
   22.9026    0.0742    3.7923 C   0  0  0  0  0  0  0  0  0  0  0  0
   22.1118    2.3050    4.5283 C   0  0  0  0  0  0  0  0  0  0  0  0
   21.2401    1.2217    2.4353 C   0  0  0  0  0  0  0  0  0  0  0  0
   20.6049    5.0808    0.7619 H   0  0  0  0  0  0  0  0  0  0  0  0
   22.2028    5.1403   -0.1781 H   0  0  0  0  0  0  0  0  0  0  0  0
   22.0861    5.7120    1.4945 H   0  0  0  0  0  0  0  0  0  0  0  0
   23.7794    1.4134    1.7269 H   0  0  0  0  0  0  0  0  0  0  0  0
   24.6399    2.8606    4.1925 H   0  0  0  0  0  0  0  0  0  0  0  0
   30.2226   -0.6836    3.9506 H   0  0  0  0  0  0  0  0  0  0  0  0
   30.8764    0.2913    5.2698 H   0  0  0  0  0  0  0  0  0  0  0  0
   31.7233    2.0002    3.5484 H   0  0  0  0  0  0  0  0  0  0  0  0
   33.1377    0.0032    4.3038 H   0  0  0  0  0  0  0  0  0  0  0  0
   33.5716    0.9722    2.8526 H   0  0  0  0  0  0  0  0  0  0  0  0
   33.5232   -0.7696    1.4227 H   0  0  0  0  0  0  0  0  0  0  0  0
   34.2354   -1.3807    2.9509 H   0  0  0  0  0  0  0  0  0  0  0  0
   32.0621   -2.7687    2.3185 H   0  0  0  0  0  0  0  0  0  0  0  0
   31.8655   -1.8480    3.8068 H   0  0  0  0  0  0  0  0  0  0  0  0
   30.2290   -1.0279    2.0320 H   0  0  0  0  0  0  0  0  0  0  0  0
   31.5608   -1.0781    0.8824 H   0  0  0  0  0  0  0  0  0  0  0  0
   32.3417    0.9572    1.2915 H   0  0  0  0  0  0  0  0  0  0  0  0
   30.5649    1.1111    1.2861 H   0  0  0  0  0  0  0  0  0  0  0  0
   30.7861    2.4407    6.2257 H   0  0  0  0  0  0  0  0  0  0  0  0
   29.8085    4.3360    7.4562 H   0  0  0  0  0  0  0  0  0  0  0  0
   27.5126    5.0091    6.9374 H   0  0  0  0  0  0  0  0  0  0  0  0
   26.2123    3.8663    5.2546 H   0  0  0  0  0  0  0  0  0  0  0  0
   23.8047    0.1547    4.4319 H   0  0  0  0  0  0  0  0  0  0  0  0
   23.1753   -0.5183    2.8905 H   0  0  0  0  0  0  0  0  0  0  0  0
   22.0930   -0.4763    4.3126 H   0  0  0  0  0  0  0  0  0  0  0  0
   22.9472    2.1708    5.2311 H   0  0  0  0  0  0  0  0  0  0  0  0
   21.1356    2.0471    4.9944 H   0  0  0  0  0  0  0  0  0  0  0  0
   22.0931    3.3588    4.2281 H   0  0  0  0  0  0  0  0  0  0  0  0
   21.5728    1.2892    1.3831 H   0  0  0  0  0  0  0  0  0  0  0  0
   20.4313    1.9736    2.5598 H   0  0  0  0  0  0  0  0  0  0  0  0
   20.7890    0.1993    2.5544 H   0  0  0  0  0  0  0  0  0  0  0  0
  1  2  1  0
  2  3  1  0
  3  4  2  0
  3  5  1  0
  5  6  1  0
  6  7  1  0
  7  8  2  0
  7  9  1  0
  9 10  2  0
 10 11  1  0
 11 12  1  0
 12 13  1  0
 13 14  1  0
 14 15  1  0
 15 16  1  0
 16 17  1  0
 17 18  1  0
 11 19  1  0
 19 20  2  0
 20 21  1  0
 21 22  2  0
 22 23  1  0
 23 24  2  0
  5 25  1  0
 25 26  1  0
 25 27  1  0
 25 28  1  0
 24  9  1  0
 18 13  1  0
 24 19  1  0
  1 29  1  0
  1 30  1  0
  1 31  1  0
  5 32  1  6
  6 33  1  0
 12 34  1  0
 12 35  1  0
 13 36  1  0
 14 37  1  0
 14 38  1  0
 15 39  1  0
 15 40  1  0
 16 41  1  0
 16 42  1  0
 17 43  1  0
 17 44  1  0
 18 45  1  0
 18 46  1  0
 20 47  1  0
 21 48  1  0
 22 49  1  0
 23 50  1  0
 26 51  1  0
 26 52  1  0
 26 53  1  0
 27 54  1  0
 27 55  1  0
 27 56  1  0
 28 57  1  0
 28 58  1  0
 28 59  1  0
M  END
$$$$
