
     RDKit          3D

 59 61  0  0  0  0  0  0  0  0999 V2000
   23.3165    4.3028    0.7614 C   0  0  0  0  0  0  0  0  0  0  0  0
   23.6252    3.2449    1.6352 O   0  0  0  0  0  0  0  0  0  0  0  0
   22.7738    2.1572    1.8707 C   0  0  0  0  0  0  0  0  0  0  0  0
   21.6963    2.1557    1.2508 O   0  0  0  0  0  0  0  0  0  0  0  0
   23.1780    1.0635    2.8355 C   0  0  1  0  0  0  0  0  0  0  0  0
   24.5060    1.4359    3.2980 N   0  0  0  0  0  0  0  0  0  0  0  0
   25.6483    0.9337    2.6489 C   0  0  0  0  0  0  0  0  0  0  0  0
   25.4235    0.1713    1.6454 O   0  0  0  0  0  0  0  0  0  0  0  0
   27.0188    1.1744    2.9711 C   0  0  0  0  0  0  0  0  0  0  0  0
   28.0423    0.9162    2.1114 N   0  0  0  0  0  0  0  0  0  0  0  0
   29.2105    1.1731    2.6403 N   0  0  0  0  0  0  0  0  0  0  0  0
   30.5342    0.9196    2.0610 C   0  0  0  0  0  0  0  0  0  0  0  0
   30.8899   -0.4499    1.9409 C   0  0  0  0  0  0  0  0  0  0  0  0
   30.9162   -1.4141    3.1633 C   0  0  0  0  0  0  0  0  0  0  0  0
   31.7631   -0.9138    4.5201 C   0  0  0  0  0  0  0  0  0  0  0  0
   32.5885   -0.4884    3.6596 C   0  0  0  0  0  0  0  0  0  0  0  0
   33.5308   -0.0072    2.6762 C   0  0  0  0  0  0  0  0  0  0  0  0
   32.4861   -0.6281    1.6091 C   0  0  0  0  0  0  0  0  0  0  0  0
   28.9800    1.6117    3.8660 C   0  0  0  0  0  0  0  0  0  0  0  0
   29.8412    2.0400    4.8432 C   0  0  0  0  0  0  0  0  0  0  0  0
   29.4219    2.4887    6.0721 C   0  0  0  0  0  0  0  0  0  0  0  0
   28.0543    2.4917    6.2926 C   0  0  0  0  0  0  0  0  0  0  0  0
   27.1537    2.0630    5.3193 C   0  0  0  0  0  0  0  0  0  0  0  0
   27.6467    1.6352    4.1245 C   0  0  0  0  0  0  0  0  0  0  0  0
   22.2021    0.8888    3.9324 C   0  0  0  0  0  0  0  0  0  0  0  0
   22.5973   -0.2009    4.9418 C   0  0  0  0  0  0  0  0  0  0  0  0
   20.8554    0.3997    3.3738 C   0  0  0  0  0  0  0  0  0  0  0  0
   21.9658    2.1567    4.7203 C   0  0  0  0  0  0  0  0  0  0  0  0
   22.3465    4.1278    0.2409 H   0  0  0  0  0  0  0  0  0  0  0  0
   24.1166    4.4754    0.0073 H   0  0  0  0  0  0  0  0  0  0  0  0
   23.2401    5.2514    1.3692 H   0  0  0  0  0  0  0  0  0  0  0  0
   23.2351    0.1664    2.1625 H   0  0  0  0  0  0  0  0  0  0  0  0
   24.5597    2.0857    4.0866 H   0  0  0  0  0  0  0  0  0  0  0  0
   31.2871    1.5647    2.6399 H   0  0  0  0  0  0  0  0  0  0  0  0
   30.5326    1.3987    1.0341 H   0  0  0  0  0  0  0  0  0  0  0  0
   30.4713   -1.0246    1.1474 H   0  0  0  0  0  0  0  0  0  0  0  0
   29.9388   -1.5932    3.5436 H   0  0  0  0  0  0  0  0  0  0  0  0
   31.4368   -2.3064    2.8776 H   0  0  0  0  0  0  0  0  0  0  0  0
   30.9697   -0.3530    5.0071 H   0  0  0  0  0  0  0  0  0  0  0  0
   31.7383   -1.9230    5.0312 H   0  0  0  0  0  0  0  0  0  0  0  0
   33.3011   -1.6538    3.6595 H   0  0  0  0  0  0  0  0  0  0  0  0
   33.5579   -0.1871    4.6284 H   0  0  0  0  0  0  0  0  0  0  0  0
   34.4347   -0.4445    2.4105 H   0  0  0  0  0  0  0  0  0  0  0  0
   33.4369    1.0474    2.4282 H   0  0  0  0  0  0  0  0  0  0  0  0
   32.6220   -1.6732    1.5642 H   0  0  0  0  0  0  0  0  0  0  0  0
   32.5695   -0.1037    0.6765 H   0  0  0  0  0  0  0  0  0  0  0  0
   30.9009    2.0415    4.6343 H   0  0  0  0  0  0  0  0  0  0  0  0
   30.0688    2.8236    6.8502 H   0  0  0  0  0  0  0  0  0  0  0  0
   27.7054    2.8541    7.2701 H   0  0  0  0  0  0  0  0  0  0  0  0
   26.1202    2.0718    5.5465 H   0  0  0  0  0  0  0  0  0  0  0  0
   23.6548   -0.0617    5.1776 H   0  0  0  0  0  0  0  0  0  0  0  0
   21.9605   -0.0867    5.8462 H   0  0  0  0  0  0  0  0  0  0  0  0
   22.3760   -1.1742    4.4999 H   0  0  0  0  0  0  0  0  0  0  0  0
   21.0903   -0.5075    2.7674 H   0  0  0  0  0  0  0  0  0  0  0  0
   20.3521    1.1500    2.7644 H   0  0  0  0  0  0  0  0  0  0  0  0
   20.2311    0.0526    4.2446 H   0  0  0  0  0  0  0  0  0  0  0  0
   21.0491    2.0595    5.3590 H   0  0  0  0  0  0  0  0  0  0  0  0
   22.8013    2.3546    5.4457 H   0  0  0  0  0  0  0  0  0  0  0  0
   21.8726    3.0630    4.1189 H   0  0  0  0  0  0  0  0  0  0  0  0
  1  2  1  0
  2  3  1  0
  3  4  2  0
  3  5  1  0
  5  6  1  0
  6  7  1  0
  7  8  2  0
  7  9  1  0
  9 10  2  0
 10 11  1  0
 11 12  1  0
 12 13  1  0
 13 14  1  0
 14 15  1  0
 15 16  1  0
 16 17  1  0
 17 18  1  0
 11 19  1  0
 19 20  2  0
 20 21  1  0
 21 22  2  0
 22 23  1  0
 23 24  2  0
  5 25  1  0
 25 26  1  0
 25 27  1  0
 25 28  1  0
 24  9  1  0
 18 13  1  0
 24 19  1  0
  1 29  1  0
  1 30  1  0
  1 31  1  0
  5 32  1  6
  6 33  1  0
 12 34  1  0
 12 35  1  0
 13 36  1  0
 14 37  1  0
 14 38  1  0
 15 39  1  0
 15 40  1  0
 16 41  1  0
 16 42  1  0
 17 43  1  0
 17 44  1  0
 18 45  1  0
 18 46  1  0
 20 47  1  0
 21 48  1  0
 22 49  1  0
 23 50  1  0
 26 51  1  0
 26 52  1  0
 26 53  1  0
 27 54  1  0
 27 55  1  0
 27 56  1  0
 28 57  1  0
 28 58  1  0
 28 59  1  0
M  END
$$$$
