
     RDKit          3D

 59 61  0  0  0  0  0  0  0  0999 V2000
   22.2648    3.9852    0.0792 C   0  0  0  0  0  0  0  0  0  0  0  0
   22.5068    3.0129    1.0895 O   0  0  0  0  0  0  0  0  0  0  0  0
   23.6090    3.0593    1.9267 C   0  0  0  0  0  0  0  0  0  0  0  0
   24.4686    3.9989    1.8192 O   0  0  0  0  0  0  0  0  0  0  0  0
   23.8145    2.0254    2.9604 C   0  0  1  0  0  0  0  0  0  0  0  0
   25.0518    2.2831    3.7168 N   0  0  0  0  0  0  0  0  0  0  0  0
   26.1304    1.4169    3.6916 C   0  0  0  0  0  0  0  0  0  0  0  0
   25.9836    0.3676    2.9512 O   0  0  0  0  0  0  0  0  0  0  0  0
   27.3982    1.5100    4.3663 C   0  0  0  0  0  0  0  0  0  0  0  0
   28.4386    0.6865    4.0447 N   0  0  0  0  0  0  0  0  0  0  0  0
   29.4857    0.9536    4.8086 N   0  0  0  0  0  0  0  0  0  0  0  0
   30.7751    0.2371    4.7108 C   0  0  0  0  0  0  0  0  0  0  0  0
   31.6595    0.9301    3.7422 C   0  0  0  0  0  0  0  0  0  0  0  0
   32.9786    0.2489    3.6185 C   0  0  0  0  0  0  0  0  0  0  0  0
   32.8310   -1.1058    2.9808 C   0  0  0  0  0  0  0  0  0  0  0  0
   32.2463   -0.9365    1.6080 C   0  0  0  0  0  0  0  0  0  0  0  0
   30.9027   -0.2775    1.6976 C   0  0  0  0  0  0  0  0  0  0  0  0
   31.0817    1.0811    2.3508 C   0  0  0  0  0  0  0  0  0  0  0  0
   29.2098    1.9462    5.6632 C   0  0  0  0  0  0  0  0  0  0  0  0
   29.9290    2.5871    6.6518 C   0  0  0  0  0  0  0  0  0  0  0  0
   29.3384    3.5956    7.3840 C   0  0  0  0  0  0  0  0  0  0  0  0
   28.0507    3.9307    7.1059 C   0  0  0  0  0  0  0  0  0  0  0  0
   27.3406    3.2905    6.1221 C   0  0  0  0  0  0  0  0  0  0  0  0
   27.8840    2.2907    5.3743 C   0  0  0  0  0  0  0  0  0  0  0  0
   22.6587    1.8411    3.8889 C   0  0  0  0  0  0  0  0  0  0  0  0
   23.0402    0.7430    4.8888 C   0  0  0  0  0  0  0  0  0  0  0  0
   21.5081    1.2479    3.0838 C   0  0  0  0  0  0  0  0  0  0  0  0
   22.2709    3.0462    4.6698 C   0  0  0  0  0  0  0  0  0  0  0  0
   22.9268    4.8675    0.1577 H   0  0  0  0  0  0  0  0  0  0  0  0
   22.3889    3.4627   -0.8975 H   0  0  0  0  0  0  0  0  0  0  0  0
   21.2060    4.3515    0.1190 H   0  0  0  0  0  0  0  0  0  0  0  0
   23.9533    1.0575    2.4274 H   0  0  0  0  0  0  0  0  0  0  0  0
   25.0736    3.1521    4.2537 H   0  0  0  0  0  0  0  0  0  0  0  0
   30.5549   -0.7839    4.3469 H   0  0  0  0  0  0  0  0  0  0  0  0
   31.1838    0.2436    5.7328 H   0  0  0  0  0  0  0  0  0  0  0  0
   31.8762    1.9991    4.0581 H   0  0  0  0  0  0  0  0  0  0  0  0
   33.7144    0.8826    3.0426 H   0  0  0  0  0  0  0  0  0  0  0  0
   33.4763    0.0698    4.5971 H   0  0  0  0  0  0  0  0  0  0  0  0
   32.1011   -1.6971    3.5648 H   0  0  0  0  0  0  0  0  0  0  0  0
   33.8214   -1.6392    2.9375 H   0  0  0  0  0  0  0  0  0  0  0  0
   32.9360   -0.2356    1.0604 H   0  0  0  0  0  0  0  0  0  0  0  0
   32.2037   -1.9227    1.0914 H   0  0  0  0  0  0  0  0  0  0  0  0
   30.6027   -0.0483    0.6411 H   0  0  0  0  0  0  0  0  0  0  0  0
   30.1437   -0.9061    2.1626 H   0  0  0  0  0  0  0  0  0  0  0  0
   31.8483    1.6210    1.7572 H   0  0  0  0  0  0  0  0  0  0  0  0
   30.1598    1.6864    2.3196 H   0  0  0  0  0  0  0  0  0  0  0  0
   30.9624    2.2959    6.8532 H   0  0  0  0  0  0  0  0  0  0  0  0
   29.8811    4.1247    8.1754 H   0  0  0  0  0  0  0  0  0  0  0  0
   27.5786    4.7078    7.6620 H   0  0  0  0  0  0  0  0  0  0  0  0
   26.3343    3.5779    5.9481 H   0  0  0  0  0  0  0  0  0  0  0  0
   22.3088    0.7372    5.7085 H   0  0  0  0  0  0  0  0  0  0  0  0
   24.0508    0.8872    5.2986 H   0  0  0  0  0  0  0  0  0  0  0  0
   23.0373   -0.2070    4.3097 H   0  0  0  0  0  0  0  0  0  0  0  0
   20.8442    0.6343    3.7289 H   0  0  0  0  0  0  0  0  0  0  0  0
   21.9573    0.5303    2.3660 H   0  0  0  0  0  0  0  0  0  0  0  0
   20.9542    1.9976    2.4974 H   0  0  0  0  0  0  0  0  0  0  0  0
   21.1780    2.9378    4.9136 H   0  0  0  0  0  0  0  0  0  0  0  0
   22.3664    4.0106    4.1323 H   0  0  0  0  0  0  0  0  0  0  0  0
   22.8554    3.1242    5.6220 H   0  0  0  0  0  0  0  0  0  0  0  0
  1  2  1  0
  2  3  1  0
  3  4  2  0
  3  5  1  0
  5  6  1  0
  6  7  1  0
  7  8  2  0
  7  9  1  0
  9 10  2  0
 10 11  1  0
 11 12  1  0
 12 13  1  0
 13 14  1  0
 14 15  1  0
 15 16  1  0
 16 17  1  0
 17 18  1  0
 11 19  1  0
 19 20  2  0
 20 21  1  0
 21 22  2  0
 22 23  1  0
 23 24  2  0
  5 25  1  0
 25 26  1  0
 25 27  1  0
 25 28  1  0
 24  9  1  0
 18 13  1  0
 24 19  1  0
  1 29  1  0
  1 30  1  0
  1 31  1  0
  5 32  1  6
  6 33  1  0
 12 34  1  0
 12 35  1  0
 13 36  1  0
 14 37  1  0
 14 38  1  0
 15 39  1  0
 15 40  1  0
 16 41  1  0
 16 42  1  0
 17 43  1  0
 17 44  1  0
 18 45  1  0
 18 46  1  0
 20 47  1  0
 21 48  1  0
 22 49  1  0
 23 50  1  0
 26 51  1  0
 26 52  1  0
 26 53  1  0
 27 54  1  0
 27 55  1  0
 27 56  1  0
 28 57  1  0
 28 58  1  0
 28 59  1  0
M  END
$$$$
