
     RDKit          3D

 59 61  0  0  0  0  0  0  0  0999 V2000
   22.3286   -1.4313    1.4305 C   0  0  0  0  0  0  0  0  0  0  0  0
   23.1575   -0.3136    1.7089 O   0  0  0  0  0  0  0  0  0  0  0  0
   22.6577    0.9990    1.7408 C   0  0  0  0  0  0  0  0  0  0  0  0
   21.4229    1.2053    1.5142 O   0  0  0  0  0  0  0  0  0  0  0  0
   23.5881    2.1081    2.0386 C   0  0  1  0  0  0  0  0  0  0  0  0
   24.9524    1.6750    2.2694 N   0  0  0  0  0  0  0  0  0  0  0  0
   25.5564    1.8556    3.5373 C   0  0  0  0  0  0  0  0  0  0  0  0
   24.8856    2.4048    4.4760 O   0  0  0  0  0  0  0  0  0  0  0  0
   26.9286    1.4192    3.7680 C   0  0  0  0  0  0  0  0  0  0  0  0
   27.7930    0.8301    2.9290 N   0  0  0  0  0  0  0  0  0  0  0  0
   28.9445    0.5987    3.5461 N   0  0  0  0  0  0  0  0  0  0  0  0
   30.1400   -0.0533    2.8977 C   0  0  0  0  0  0  0  0  0  0  0  0
   30.9930    0.9046    2.2977 C   0  0  0  0  0  0  0  0  0  0  0  0
   30.5862    1.7711    1.2428 C   0  0  0  0  0  0  0  0  0  0  0  0
   30.2821    0.4749    0.3046 C   0  0  0  0  0  0  0  0  0  0  0  0
   31.2303   -0.7828    0.1052 C   0  0  0  0  0  0  0  0  0  0  0  0
   32.3412    0.0633   -0.0718 C   0  0  0  0  0  0  0  0  0  0  0  0
   32.2873    0.4797    1.5141 C   0  0  0  0  0  0  0  0  0  0  0  0
   28.8954    1.0238    4.8210 C   0  0  0  0  0  0  0  0  0  0  0  0
   29.8165    1.0087    5.8473 C   0  0  0  0  0  0  0  0  0  0  0  0
   29.4746    1.5289    7.0792 C   0  0  0  0  0  0  0  0  0  0  0  0
   28.2086    2.0567    7.2577 C   0  0  0  0  0  0  0  0  0  0  0  0
   27.2865    2.0644    6.2070 C   0  0  0  0  0  0  0  0  0  0  0  0
   27.6167    1.5462    4.9680 C   0  0  0  0  0  0  0  0  0  0  0  0
   23.5251    3.2348    1.0310 C   0  0  0  0  0  0  0  0  0  0  0  0
   24.5113    4.3532    1.3931 C   0  0  0  0  0  0  0  0  0  0  0  0
   22.1649    3.8995    1.0470 C   0  0  0  0  0  0  0  0  0  0  0  0
   23.8227    2.8076   -0.3689 C   0  0  0  0  0  0  0  0  0  0  0  0
   22.2780   -1.6534    0.3480 H   0  0  0  0  0  0  0  0  0  0  0  0
   21.3055   -1.1935    1.8412 H   0  0  0  0  0  0  0  0  0  0  0  0
   22.7444   -2.2886    2.0294 H   0  0  0  0  0  0  0  0  0  0  0  0
   23.2379    2.5485    3.0100 H   0  0  0  0  0  0  0  0  0  0  0  0
   25.4721    1.2253    1.4659 H   0  0  0  0  0  0  0  0  0  0  0  0
   29.7244   -0.8790    2.2767 H   0  0  0  0  0  0  0  0  0  0  0  0
   30.6397   -0.5969    3.7497 H   0  0  0  0  0  0  0  0  0  0  0  0
   31.4794    1.5385    3.1163 H   0  0  0  0  0  0  0  0  0  0  0  0
   31.2735    2.4097    0.7473 H   0  0  0  0  0  0  0  0  0  0  0  0
   29.5884    2.1811    1.3276 H   0  0  0  0  0  0  0  0  0  0  0  0
   30.2313    0.9367   -0.6882 H   0  0  0  0  0  0  0  0  0  0  0  0
   29.2864    0.1129    0.5779 H   0  0  0  0  0  0  0  0  0  0  0  0
   31.1641   -1.5180    0.8528 H   0  0  0  0  0  0  0  0  0  0  0  0
   30.8376   -1.1559   -0.8842 H   0  0  0  0  0  0  0  0  0  0  0  0
   33.3603   -0.3366   -0.1616 H   0  0  0  0  0  0  0  0  0  0  0  0
   32.2441    0.9816   -0.6171 H   0  0  0  0  0  0  0  0  0  0  0  0
   33.0221    1.2877    1.5363 H   0  0  0  0  0  0  0  0  0  0  0  0
   32.6574   -0.4169    1.9891 H   0  0  0  0  0  0  0  0  0  0  0  0
   30.8075    0.5855    5.6761 H   0  0  0  0  0  0  0  0  0  0  0  0
   30.2049    1.5183    7.8974 H   0  0  0  0  0  0  0  0  0  0  0  0
   27.9703    2.4558    8.2312 H   0  0  0  0  0  0  0  0  0  0  0  0
   26.2906    2.4928    6.3890 H   0  0  0  0  0  0  0  0  0  0  0  0
   25.5343    4.0788    1.0697 H   0  0  0  0  0  0  0  0  0  0  0  0
   24.2148    5.2318    0.7513 H   0  0  0  0  0  0  0  0  0  0  0  0
   24.4083    4.6143    2.4511 H   0  0  0  0  0  0  0  0  0  0  0  0
   22.2360    4.9412    0.6615 H   0  0  0  0  0  0  0  0  0  0  0  0
   21.8509    3.9739    2.1189 H   0  0  0  0  0  0  0  0  0  0  0  0
   21.3893    3.3120    0.5023 H   0  0  0  0  0  0  0  0  0  0  0  0
   24.7658    2.2215   -0.4527 H   0  0  0  0  0  0  0  0  0  0  0  0
   22.9621    2.3370   -0.8866 H   0  0  0  0  0  0  0  0  0  0  0  0
   24.0380    3.7447   -0.9527 H   0  0  0  0  0  0  0  0  0  0  0  0
  1  2  1  0
  2  3  1  0
  3  4  2  0
  3  5  1  0
  5  6  1  0
  6  7  1  0
  7  8  2  0
  7  9  1  0
  9 10  2  0
 10 11  1  0
 11 12  1  0
 12 13  1  0
 13 14  1  0
 14 15  1  0
 15 16  1  0
 16 17  1  0
 17 18  1  0
 11 19  1  0
 19 20  2  0
 20 21  1  0
 21 22  2  0
 22 23  1  0
 23 24  2  0
  5 25  1  0
 25 26  1  0
 25 27  1  0
 25 28  1  0
 24  9  1  0
 18 13  1  0
 24 19  1  0
  1 29  1  0
  1 30  1  0
  1 31  1  0
  5 32  1  1
  6 33  1  0
 12 34  1  0
 12 35  1  0
 13 36  1  0
 14 37  1  0
 14 38  1  0
 15 39  1  0
 15 40  1  0
 16 41  1  0
 16 42  1  0
 17 43  1  0
 17 44  1  0
 18 45  1  0
 18 46  1  0
 20 47  1  0
 21 48  1  0
 22 49  1  0
 23 50  1  0
 26 51  1  0
 26 52  1  0
 26 53  1  0
 27 54  1  0
 27 55  1  0
 27 56  1  0
 28 57  1  0
 28 58  1  0
 28 59  1  0
M  END
$$$$
