
     RDKit          3D

 59 61  0  0  0  0  0  0  0  0999 V2000
   21.1203    5.1852    1.2246 C   0  0  0  0  0  0  0  0  0  0  0  0
   21.7875    3.9369    1.2238 O   0  0  0  0  0  0  0  0  0  0  0  0
   22.9518    3.7024    1.9066 C   0  0  0  0  0  0  0  0  0  0  0  0
   23.4580    4.6502    2.5729 O   0  0  0  0  0  0  0  0  0  0  0  0
   23.6077    2.3786    1.8718 C   0  0  1  0  0  0  0  0  0  0  0  0
   24.8300    2.4201    2.6898 N   0  0  0  0  0  0  0  0  0  0  0  0
   26.0619    2.1815    2.1056 C   0  0  0  0  0  0  0  0  0  0  0  0
   26.0365    1.9262    0.8394 O   0  0  0  0  0  0  0  0  0  0  0  0
   27.3763    2.1724    2.6988 C   0  0  0  0  0  0  0  0  0  0  0  0
   28.4647    1.7565    1.9881 N   0  0  0  0  0  0  0  0  0  0  0  0
   29.5425    1.8490    2.7389 N   0  0  0  0  0  0  0  0  0  0  0  0
   30.8611    1.4833    2.2934 C   0  0  0  0  0  0  0  0  0  0  0  0
   31.1373    0.0242    2.5881 C   0  0  0  0  0  0  0  0  0  0  0  0
   32.6351   -0.0999    1.9944 C   0  0  0  0  0  0  0  0  0  0  0  0
   33.4217   -1.4630    1.7024 C   0  0  0  0  0  0  0  0  0  0  0  0
   33.0329   -1.9502    2.9888 C   0  0  0  0  0  0  0  0  0  0  0  0
   31.5091   -2.0775    2.4882 C   0  0  0  0  0  0  0  0  0  0  0  0
   30.6962   -0.9356    1.6749 C   0  0  0  0  0  0  0  0  0  0  0  0
   29.2520    2.3190    3.9620 C   0  0  0  0  0  0  0  0  0  0  0  0
   30.0028    2.5963    5.0834 C   0  0  0  0  0  0  0  0  0  0  0  0
   29.3969    3.0929    6.2240 C   0  0  0  0  0  0  0  0  0  0  0  0
   28.0308    3.2833    6.1563 C   0  0  0  0  0  0  0  0  0  0  0  0
   27.2906    3.0094    5.0498 C   0  0  0  0  0  0  0  0  0  0  0  0
   27.8686    2.5206    3.9212 C   0  0  0  0  0  0  0  0  0  0  0  0
   22.6879    1.2780    2.3575 C   0  0  0  0  0  0  0  0  0  0  0  0
   22.3071    1.6177    3.7847 C   0  0  0  0  0  0  0  0  0  0  0  0
   23.3127   -0.0743    2.2545 C   0  0  0  0  0  0  0  0  0  0  0  0
   21.4154    1.2559    1.5408 C   0  0  0  0  0  0  0  0  0  0  0  0
   21.7949    5.9426    1.6750 H   0  0  0  0  0  0  0  0  0  0  0  0
   20.2181    5.0819    1.8568 H   0  0  0  0  0  0  0  0  0  0  0  0
   20.8314    5.4199    0.1720 H   0  0  0  0  0  0  0  0  0  0  0  0
   23.8504    2.1459    0.8222 H   0  0  0  0  0  0  0  0  0  0  0  0
   24.7217    2.6157    3.6657 H   0  0  0  0  0  0  0  0  0  0  0  0
   31.0392    1.6939    1.2273 H   0  0  0  0  0  0  0  0  0  0  0  0
   31.6173    2.0768    2.8552 H   0  0  0  0  0  0  0  0  0  0  0  0
   31.2710   -0.1613    3.6416 H   0  0  0  0  0  0  0  0  0  0  0  0
   33.2573    0.5287    2.6268 H   0  0  0  0  0  0  0  0  0  0  0  0
   32.5462    0.3457    0.9942 H   0  0  0  0  0  0  0  0  0  0  0  0
   34.4480   -1.0896    1.6498 H   0  0  0  0  0  0  0  0  0  0  0  0
   33.0957   -1.8809    0.7692 H   0  0  0  0  0  0  0  0  0  0  0  0
   33.0912   -1.3311    3.8468 H   0  0  0  0  0  0  0  0  0  0  0  0
   33.2791   -2.9956    3.1731 H   0  0  0  0  0  0  0  0  0  0  0  0
   30.9525   -2.1501    3.4220 H   0  0  0  0  0  0  0  0  0  0  0  0
   31.4360   -2.9976    1.9240 H   0  0  0  0  0  0  0  0  0  0  0  0
   31.0683   -1.0562    0.6704 H   0  0  0  0  0  0  0  0  0  0  0  0
   29.6757   -1.3363    1.7101 H   0  0  0  0  0  0  0  0  0  0  0  0
   31.0564    2.4270    5.0715 H   0  0  0  0  0  0  0  0  0  0  0  0
   29.9882    3.3110    7.1066 H   0  0  0  0  0  0  0  0  0  0  0  0
   27.5653    3.6753    7.0612 H   0  0  0  0  0  0  0  0  0  0  0  0
   26.2465    3.1869    5.0641 H   0  0  0  0  0  0  0  0  0  0  0  0
   21.2901    1.2212    3.9587 H   0  0  0  0  0  0  0  0  0  0  0  0
   22.2397    2.7267    3.8419 H   0  0  0  0  0  0  0  0  0  0  0  0
   23.0271    1.1959    4.4952 H   0  0  0  0  0  0  0  0  0  0  0  0
   23.5802   -0.2681    1.2068 H   0  0  0  0  0  0  0  0  0  0  0  0
   22.5413   -0.8130    2.5533 H   0  0  0  0  0  0  0  0  0  0  0  0
   24.1919   -0.1865    2.9371 H   0  0  0  0  0  0  0  0  0  0  0  0
   20.9933    0.2383    1.5262 H   0  0  0  0  0  0  0  0  0  0  0  0
   20.7190    1.9889    1.9967 H   0  0  0  0  0  0  0  0  0  0  0  0
   21.5963    1.6421    0.4999 H   0  0  0  0  0  0  0  0  0  0  0  0
  1  2  1  0
  2  3  1  0
  3  4  2  0
  3  5  1  0
  5  6  1  0
  6  7  1  0
  7  8  2  0
  7  9  1  0
  9 10  2  0
 10 11  1  0
 11 12  1  0
 12 13  1  0
 13 14  1  0
 14 15  1  0
 15 16  1  0
 16 17  1  0
 17 18  1  0
 11 19  1  0
 19 20  2  0
 20 21  1  0
 21 22  2  0
 22 23  1  0
 23 24  2  0
  5 25  1  0
 25 26  1  0
 25 27  1  0
 25 28  1  0
 24  9  1  0
 18 13  1  0
 24 19  1  0
  1 29  1  0
  1 30  1  0
  1 31  1  0
  5 32  1  6
  6 33  1  0
 12 34  1  0
 12 35  1  0
 13 36  1  0
 14 37  1  0
 14 38  1  0
 15 39  1  0
 15 40  1  0
 16 41  1  0
 16 42  1  0
 17 43  1  0
 17 44  1  0
 18 45  1  0
 18 46  1  0
 20 47  1  0
 21 48  1  0
 22 49  1  0
 23 50  1  0
 26 51  1  0
 26 52  1  0
 26 53  1  0
 27 54  1  0
 27 55  1  0
 27 56  1  0
 28 57  1  0
 28 58  1  0
 28 59  1  0
M  END
$$$$
