
     RDKit          3D

 58 62  0  0  0  0  0  0  0  0999 V2000
   25.1740    3.5380    5.4493 O   0  0  0  0  0  0  0  0  0  0  0  0
   25.9821    2.5663    5.2852 C   0  0  0  0  0  0  0  0  0  0  0  0
   25.4751    1.2748    5.0648 N   0  0  0  0  0  0  0  0  0  0  0  0
   24.0742    0.9325    5.0044 C   0  0  0  0  0  0  0  0  0  0  0  0
   23.8994   -0.5559    4.7511 C   0  0  0  0  0  0  0  0  0  0  0  0
   22.4565   -0.9293    4.8320 C   0  0  0  0  0  0  0  0  0  0  0  0
   21.7306   -0.1488    3.7574 C   0  0  0  0  0  0  0  0  0  0  0  0
   21.8468    1.2983    4.1106 C   0  0  0  0  0  0  0  0  0  0  0  0
   21.2884    1.6333    5.4728 C   0  0  0  0  0  0  0  0  0  0  0  0
   22.0454    0.8307    6.4944 C   0  0  0  0  0  0  0  0  0  0  0  0
   21.8803   -0.6345    6.1954 C   0  0  0  0  0  0  0  0  0  0  0  0
   23.5020    1.2177    6.3781 C   0  0  0  0  0  0  0  0  0  0  0  0
   23.2990    1.7340    3.9872 C   0  0  0  0  0  0  0  0  0  0  0  0
   27.4237    2.8001    5.3272 C   0  0  0  0  0  0  0  0  0  0  0  0
   28.4329    1.9464    5.1837 N   0  0  0  0  0  0  0  0  0  0  0  0
   29.6010    2.5759    5.2924 N   0  0  0  0  0  0  0  0  0  0  0  0
   30.9433    1.9213    5.1834 C   0  0  0  0  0  0  0  0  0  0  0  0
   31.3809    1.4744    6.5140 C   0  0  0  0  0  0  0  0  0  0  0  0
   32.7217    0.8477    6.5424 C   0  0  0  0  0  0  0  0  0  0  0  0
   33.0485   -0.3997    5.8668 C   0  0  0  0  0  0  0  0  0  0  0  0
   32.9259   -0.5651    4.4099 C   0  0  0  0  0  0  0  0  0  0  0  0
   33.4189   -1.8767    4.1255 F   0  0  0  0  0  0  0  0  0  0  0  0
   29.4047    3.8897    5.5153 C   0  0  0  0  0  0  0  0  0  0  0  0
   30.2702    4.9475    5.6963 C   0  0  0  0  0  0  0  0  0  0  0  0
   29.7416    6.2025    5.9087 C   0  0  0  0  0  0  0  0  0  0  0  0
   28.3654    6.4082    5.9415 C   0  0  0  0  0  0  0  0  0  0  0  0
   27.5323    5.3132    5.7543 C   0  0  0  0  0  0  0  0  0  0  0  0
   28.0260    4.0422    5.5391 C   0  0  0  0  0  0  0  0  0  0  0  0
   26.1925    0.5011    4.9343 H   0  0  0  0  0  0  0  0  0  0  0  0
   24.4244   -1.0945    5.5633 H   0  0  0  0  0  0  0  0  0  0  0  0
   24.3221   -0.8971    3.7981 H   0  0  0  0  0  0  0  0  0  0  0  0
   22.3460   -2.0004    4.5716 H   0  0  0  0  0  0  0  0  0  0  0  0
   22.3195   -0.2945    2.8202 H   0  0  0  0  0  0  0  0  0  0  0  0
   20.7156   -0.4922    3.5556 H   0  0  0  0  0  0  0  0  0  0  0  0
   21.2213    1.8570    3.3721 H   0  0  0  0  0  0  0  0  0  0  0  0
   20.2177    1.4124    5.4608 H   0  0  0  0  0  0  0  0  0  0  0  0
   21.5098    2.6978    5.6699 H   0  0  0  0  0  0  0  0  0  0  0  0
   21.7274    1.0907    7.5125 H   0  0  0  0  0  0  0  0  0  0  0  0
   20.7990   -0.8597    6.2078 H   0  0  0  0  0  0  0  0  0  0  0  0
   22.3612   -1.2862    6.9246 H   0  0  0  0  0  0  0  0  0  0  0  0
   24.0948    0.6587    7.1528 H   0  0  0  0  0  0  0  0  0  0  0  0
   23.5846    2.2880    6.6222 H   0  0  0  0  0  0  0  0  0  0  0  0
   23.3105    2.7913    4.2524 H   0  0  0  0  0  0  0  0  0  0  0  0
   23.6020    1.5038    2.9640 H   0  0  0  0  0  0  0  0  0  0  0  0
   30.7853    1.1474    4.4278 H   0  0  0  0  0  0  0  0  0  0  0  0
   31.6570    2.6435    4.7437 H   0  0  0  0  0  0  0  0  0  0  0  0
   30.6068    0.8454    7.0417 H   0  0  0  0  0  0  0  0  0  0  0  0
   31.4915    2.4180    7.1565 H   0  0  0  0  0  0  0  0  0  0  0  0
   33.5016    1.6691    6.2693 H   0  0  0  0  0  0  0  0  0  0  0  0
   33.0491    0.6945    7.6475 H   0  0  0  0  0  0  0  0  0  0  0  0
   34.1551   -0.6071    6.1074 H   0  0  0  0  0  0  0  0  0  0  0  0
   32.4592   -1.2334    6.3653 H   0  0  0  0  0  0  0  0  0  0  0  0
   33.4577    0.1307    3.7749 H   0  0  0  0  0  0  0  0  0  0  0  0
   31.8529   -0.6586    4.0658 H   0  0  0  0  0  0  0  0  0  0  0  0
   31.3366    4.7480    5.6641 H   0  0  0  0  0  0  0  0  0  0  0  0
   30.4492    7.0087    6.0467 H   0  0  0  0  0  0  0  0  0  0  0  0
   27.9767    7.4092    6.1110 H   0  0  0  0  0  0  0  0  0  0  0  0
   26.4622    5.4959    5.7837 H   0  0  0  0  0  0  0  0  0  0  0  0
  1  2  2  0
  2  3  1  0
  3  4  1  0
  4  5  1  0
  5  6  1  0
  6  7  1  0
  7  8  1  0
  8  9  1  0
  9 10  1  0
 10 11  1  0
 10 12  1  0
  8 13  1  0
  2 14  1  0
 14 15  2  0
 15 16  1  0
 16 17  1  0
 17 18  1  0
 18 19  1  0
 19 20  1  0
 20 21  1  0
 21 22  1  0
 16 23  1  0
 23 24  2  0
 24 25  1  0
 25 26  2  0
 26 27  1  0
 27 28  2  0
 12  4  1  0
 28 14  1  0
 13  4  1  0
 28 23  1  0
 11  6  1  0
  3 29  1  0
  5 30  1  0
  5 31  1  0
  6 32  1  0
  7 33  1  0
  7 34  1  0
  8 35  1  0
  9 36  1  0
  9 37  1  0
 10 38  1  0
 11 39  1  0
 11 40  1  0
 12 41  1  0
 12 42  1  0
 13 43  1  0
 13 44  1  0
 17 45  1  0
 17 46  1  0
 18 47  1  0
 18 48  1  0
 19 49  1  0
 19 50  1  0
 20 51  1  0
 20 52  1  0
 21 53  1  0
 21 54  1  0
 24 55  1  0
 25 56  1  0
 26 57  1  0
 27 58  1  0
M  END
$$$$
