
     RDKit          3D

 58 62  0  0  0  0  0  0  0  0999 V2000
   25.2500    0.3968    5.5568 O   0  0  0  0  0  0  0  0  0  0  0  0
   25.3562    1.6734    5.7077 C   0  0  0  0  0  0  0  0  0  0  0  0
   24.1476    2.3750    5.6605 N   0  0  0  0  0  0  0  0  0  0  0  0
   22.8548    1.7353    5.4528 C   0  0  0  0  0  0  0  0  0  0  0  0
   22.5944    0.7826    6.5663 C   0  0  0  0  0  0  0  0  0  0  0  0
   21.2439    0.1159    6.3711 C   0  0  0  0  0  0  0  0  0  0  0  0
   21.3318   -0.6271    5.0540 C   0  0  0  0  0  0  0  0  0  0  0  0
   21.5072    0.3491    3.9355 C   0  0  0  0  0  0  0  0  0  0  0  0
   20.3774    1.3556    3.9545 C   0  0  0  0  0  0  0  0  0  0  0  0
   20.4451    2.1380    5.2249 C   0  0  0  0  0  0  0  0  0  0  0  0
   20.1888    1.1753    6.3890 C   0  0  0  0  0  0  0  0  0  0  0  0
   21.7720    2.7852    5.4648 C   0  0  0  0  0  0  0  0  0  0  0  0
   22.8087    1.0851    4.0905 C   0  0  0  0  0  0  0  0  0  0  0  0
   26.6908    2.1603    5.9012 C   0  0  0  0  0  0  0  0  0  0  0  0
   27.7322    1.2977    6.1356 N   0  0  0  0  0  0  0  0  0  0  0  0
   28.8590    1.9590    6.2689 N   0  0  0  0  0  0  0  0  0  0  0  0
   30.1536    1.3579    6.5255 C   0  0  0  0  0  0  0  0  0  0  0  0
   30.7674    1.0726    5.1783 C   0  0  0  0  0  0  0  0  0  0  0  0
   32.1176    0.4460    5.2430 C   0  0  0  0  0  0  0  0  0  0  0  0
   33.1381    1.2943    5.9605 C   0  0  0  0  0  0  0  0  0  0  0  0
   34.4510    0.5435    5.9518 C   0  0  0  0  0  0  0  0  0  0  0  0
   34.9314    0.2709    4.7038 F   0  0  0  0  0  0  0  0  0  0  0  0
   28.6545    3.2790    6.1353 C   0  0  0  0  0  0  0  0  0  0  0  0
   29.4801    4.3797    6.1796 C   0  0  0  0  0  0  0  0  0  0  0  0
   28.9689    5.6481    5.9920 C   0  0  0  0  0  0  0  0  0  0  0  0
   27.6099    5.7378    5.7626 C   0  0  0  0  0  0  0  0  0  0  0  0
   26.7889    4.6388    5.7192 C   0  0  0  0  0  0  0  0  0  0  0  0
   27.2781    3.3912    5.9025 C   0  0  0  0  0  0  0  0  0  0  0  0
   24.1457    3.3915    5.7893 H   0  0  0  0  0  0  0  0  0  0  0  0
   23.3148   -0.0145    6.7173 H   0  0  0  0  0  0  0  0  0  0  0  0
   22.5228    1.4040    7.5027 H   0  0  0  0  0  0  0  0  0  0  0  0
   21.0550   -0.5970    7.1990 H   0  0  0  0  0  0  0  0  0  0  0  0
   20.4943   -1.3164    4.9155 H   0  0  0  0  0  0  0  0  0  0  0  0
   22.2832   -1.2262    5.1078 H   0  0  0  0  0  0  0  0  0  0  0  0
   21.4530   -0.1759    2.9645 H   0  0  0  0  0  0  0  0  0  0  0  0
   20.4023    1.9792    3.0573 H   0  0  0  0  0  0  0  0  0  0  0  0
   19.4074    0.8141    3.9432 H   0  0  0  0  0  0  0  0  0  0  0  0
   19.6735    2.9344    5.2402 H   0  0  0  0  0  0  0  0  0  0  0  0
   19.1730    0.7797    6.2184 H   0  0  0  0  0  0  0  0  0  0  0  0
   20.2392    1.6796    7.3591 H   0  0  0  0  0  0  0  0  0  0  0  0
   21.7682    3.2371    6.4646 H   0  0  0  0  0  0  0  0  0  0  0  0
   22.0188    3.5062    4.6534 H   0  0  0  0  0  0  0  0  0  0  0  0
   22.8094    1.9273    3.3416 H   0  0  0  0  0  0  0  0  0  0  0  0
   23.6640    0.4596    3.8452 H   0  0  0  0  0  0  0  0  0  0  0  0
   29.9793    0.4400    7.1155 H   0  0  0  0  0  0  0  0  0  0  0  0
   30.7327    2.0464    7.1420 H   0  0  0  0  0  0  0  0  0  0  0  0
   30.0981    0.3118    4.6869 H   0  0  0  0  0  0  0  0  0  0  0  0
   30.7386    1.9483    4.5309 H   0  0  0  0  0  0  0  0  0  0  0  0
   32.0838   -0.6050    5.5969 H   0  0  0  0  0  0  0  0  0  0  0  0
   32.4830    0.3747    4.1918 H   0  0  0  0  0  0  0  0  0  0  0  0
   33.2624    2.2167    5.3678 H   0  0  0  0  0  0  0  0  0  0  0  0
   32.8899    1.5177    7.0039 H   0  0  0  0  0  0  0  0  0  0  0  0
   35.2000    1.2286    6.4387 H   0  0  0  0  0  0  0  0  0  0  0  0
   34.4228   -0.3675    6.5645 H   0  0  0  0  0  0  0  0  0  0  0  0
   30.5323    4.2174    6.3645 H   0  0  0  0  0  0  0  0  0  0  0  0
   29.6236    6.5149    6.0278 H   0  0  0  0  0  0  0  0  0  0  0  0
   27.2036    6.7252    5.6148 H   0  0  0  0  0  0  0  0  0  0  0  0
   25.7583    4.7811    5.5278 H   0  0  0  0  0  0  0  0  0  0  0  0
  1  2  2  0
  2  3  1  0
  3  4  1  0
  4  5  1  0
  5  6  1  0
  6  7  1  0
  7  8  1  0
  8  9  1  0
  9 10  1  0
 10 11  1  0
 10 12  1  0
  8 13  1  0
  2 14  1  0
 14 15  2  0
 15 16  1  0
 16 17  1  0
 17 18  1  0
 18 19  1  0
 19 20  1  0
 20 21  1  0
 21 22  1  0
 16 23  1  0
 23 24  2  0
 24 25  1  0
 25 26  2  0
 26 27  1  0
 27 28  2  0
 12  4  1  0
 28 14  1  0
 13  4  1  0
 28 23  1  0
 11  6  1  0
  3 29  1  0
  5 30  1  0
  5 31  1  0
  6 32  1  0
  7 33  1  0
  7 34  1  0
  8 35  1  0
  9 36  1  0
  9 37  1  0
 10 38  1  0
 11 39  1  0
 11 40  1  0
 12 41  1  0
 12 42  1  0
 13 43  1  0
 13 44  1  0
 17 45  1  0
 17 46  1  0
 18 47  1  0
 18 48  1  0
 19 49  1  0
 19 50  1  0
 20 51  1  0
 20 52  1  0
 21 53  1  0
 21 54  1  0
 24 55  1  0
 25 56  1  0
 26 57  1  0
 27 58  1  0
M  END
$$$$
