
     RDKit          3D

 58 62  0  0  0  0  0  0  0  0999 V2000
   26.0717    0.5926    5.2664 O   0  0  0  0  0  0  0  0  0  0  0  0
   26.0221    1.8665    5.3416 C   0  0  0  0  0  0  0  0  0  0  0  0
   24.7456    2.4278    5.3018 N   0  0  0  0  0  0  0  0  0  0  0  0
   23.5299    1.6393    5.1961 C   0  0  0  0  0  0  0  0  0  0  0  0
   22.3656    2.6221    5.1466 C   0  0  0  0  0  0  0  0  0  0  0  0
   21.0455    1.9003    5.2250 C   0  0  0  0  0  0  0  0  0  0  0  0
   20.9325    1.0087    4.0227 C   0  0  0  0  0  0  0  0  0  0  0  0
   22.0942    0.0652    4.0447 C   0  0  0  0  0  0  0  0  0  0  0  0
   21.9461   -0.7984    5.2682 C   0  0  0  0  0  0  0  0  0  0  0  0
   22.0719    0.0715    6.5000 C   0  0  0  0  0  0  0  0  0  0  0  0
   21.0290    1.1506    6.5397 C   0  0  0  0  0  0  0  0  0  0  0  0
   23.4398    0.7666    6.4303 C   0  0  0  0  0  0  0  0  0  0  0  0
   23.4399    0.7824    3.9897 C   0  0  0  0  0  0  0  0  0  0  0  0
   27.3010    2.5226    5.4530 C   0  0  0  0  0  0  0  0  0  0  0  0
   28.4630    1.8503    5.2255 N   0  0  0  0  0  0  0  0  0  0  0  0
   29.5010    2.6505    5.4020 N   0  0  0  0  0  0  0  0  0  0  0  0
   30.8986    2.2919    5.2497 C   0  0  0  0  0  0  0  0  0  0  0  0
   31.5421    1.7846    6.4932 C   0  0  0  0  0  0  0  0  0  0  0  0
   32.9799    1.4170    6.3315 C   0  0  0  0  0  0  0  0  0  0  0  0
   33.2504    0.3482    5.3283 C   0  0  0  0  0  0  0  0  0  0  0  0
   32.5825   -0.9615    5.6166 C   0  0  0  0  0  0  0  0  0  0  0  0
   33.0110   -1.4577    6.8495 F   0  0  0  0  0  0  0  0  0  0  0  0
   29.0762    3.8753    5.7514 C   0  0  0  0  0  0  0  0  0  0  0  0
   29.7673    5.0309    6.0461 C   0  0  0  0  0  0  0  0  0  0  0  0
   29.0703    6.1770    6.3947 C   0  0  0  0  0  0  0  0  0  0  0  0
   27.6962    6.0731    6.4220 C   0  0  0  0  0  0  0  0  0  0  0  0
   27.0110    4.9177    6.1270 C   0  0  0  0  0  0  0  0  0  0  0  0
   27.6981    3.7859    5.7814 C   0  0  0  0  0  0  0  0  0  0  0  0
   24.6399    3.4458    5.3317 H   0  0  0  0  0  0  0  0  0  0  0  0
   22.4644    3.4550    5.8478 H   0  0  0  0  0  0  0  0  0  0  0  0
   22.4081    3.0401    4.0982 H   0  0  0  0  0  0  0  0  0  0  0  0
   20.2220    2.6141    5.2180 H   0  0  0  0  0  0  0  0  0  0  0  0
   20.0205    0.3994    4.0223 H   0  0  0  0  0  0  0  0  0  0  0  0
   20.9856    1.6321    3.1320 H   0  0  0  0  0  0  0  0  0  0  0  0
   22.0481   -0.5272    3.1115 H   0  0  0  0  0  0  0  0  0  0  0  0
   22.6890   -1.5993    5.3290 H   0  0  0  0  0  0  0  0  0  0  0  0
   20.9345   -1.2208    5.2384 H   0  0  0  0  0  0  0  0  0  0  0  0
   22.0704   -0.5096    7.4340 H   0  0  0  0  0  0  0  0  0  0  0  0
   20.0334    0.8131    6.8299 H   0  0  0  0  0  0  0  0  0  0  0  0
   21.3559    1.8948    7.3086 H   0  0  0  0  0  0  0  0  0  0  0  0
   24.1584   -0.0678    6.3080 H   0  0  0  0  0  0  0  0  0  0  0  0
   23.6125    1.3362    7.3617 H   0  0  0  0  0  0  0  0  0  0  0  0
   23.4366    1.3277    3.0344 H   0  0  0  0  0  0  0  0  0  0  0  0
   24.1913   -0.0162    4.0432 H   0  0  0  0  0  0  0  0  0  0  0  0
   31.4350    3.1845    4.8677 H   0  0  0  0  0  0  0  0  0  0  0  0
   31.0001    1.5209    4.4352 H   0  0  0  0  0  0  0  0  0  0  0  0
   31.4647    2.5405    7.2842 H   0  0  0  0  0  0  0  0  0  0  0  0
   30.9965    0.8882    6.8558 H   0  0  0  0  0  0  0  0  0  0  0  0
   33.3349    1.0294    7.3190 H   0  0  0  0  0  0  0  0  0  0  0  0
   33.6279    2.2806    6.0879 H   0  0  0  0  0  0  0  0  0  0  0  0
   33.0358    0.6472    4.2836 H   0  0  0  0  0  0  0  0  0  0  0  0
   34.3522    0.1508    5.3708 H   0  0  0  0  0  0  0  0  0  0  0  0
   31.4875   -0.9526    5.5529 H   0  0  0  0  0  0  0  0  0  0  0  0
   33.0033   -1.6980    4.8733 H   0  0  0  0  0  0  0  0  0  0  0  0
   30.8528    5.0833    6.0165 H   0  0  0  0  0  0  0  0  0  0  0  0
   29.5784    7.1057    6.6331 H   0  0  0  0  0  0  0  0  0  0  0  0
   27.1306    6.9560    6.6923 H   0  0  0  0  0  0  0  0  0  0  0  0
   25.9653    4.8965    6.1771 H   0  0  0  0  0  0  0  0  0  0  0  0
  1  2  2  0
  2  3  1  0
  3  4  1  0
  4  5  1  0
  5  6  1  0
  6  7  1  0
  7  8  1  0
  8  9  1  0
  9 10  1  0
 10 11  1  0
 10 12  1  0
  8 13  1  0
  2 14  1  0
 14 15  2  0
 15 16  1  0
 16 17  1  0
 17 18  1  0
 18 19  1  0
 19 20  1  0
 20 21  1  0
 21 22  1  0
 16 23  1  0
 23 24  2  0
 24 25  1  0
 25 26  2  0
 26 27  1  0
 27 28  2  0
 12  4  1  0
 28 14  1  0
 13  4  1  0
 28 23  1  0
 11  6  1  0
  3 29  1  0
  5 30  1  0
  5 31  1  0
  6 32  1  0
  7 33  1  0
  7 34  1  0
  8 35  1  0
  9 36  1  0
  9 37  1  0
 10 38  1  0
 11 39  1  0
 11 40  1  0
 12 41  1  0
 12 42  1  0
 13 43  1  0
 13 44  1  0
 17 45  1  0
 17 46  1  0
 18 47  1  0
 18 48  1  0
 19 49  1  0
 19 50  1  0
 20 51  1  0
 20 52  1  0
 21 53  1  0
 21 54  1  0
 24 55  1  0
 25 56  1  0
 26 57  1  0
 27 58  1  0
M  END
$$$$
