
     RDKit          3D

 58 62  0  0  0  0  0  0  0  0999 V2000
   25.3730    0.5426    5.4302 O   0  0  0  0  0  0  0  0  0  0  0  0
   25.5234    1.6622    4.8353 C   0  0  0  0  0  0  0  0  0  0  0  0
   24.3476    2.2709    4.3794 N   0  0  0  0  0  0  0  0  0  0  0  0
   23.0242    1.7018    4.5668 C   0  0  0  0  0  0  0  0  0  0  0  0
   22.7023    1.5660    6.0180 C   0  0  0  0  0  0  0  0  0  0  0  0
   21.2807    1.1034    6.2471 C   0  0  0  0  0  0  0  0  0  0  0  0
   20.3231    2.0814    5.6415 C   0  0  0  0  0  0  0  0  0  0  0  0
   20.6061    2.1020    4.1452 C   0  0  0  0  0  0  0  0  0  0  0  0
   20.4241    0.7373    3.5572 C   0  0  0  0  0  0  0  0  0  0  0  0
   21.4925   -0.1599    4.1484 C   0  0  0  0  0  0  0  0  0  0  0  0
   21.1932   -0.2832    5.6137 C   0  0  0  0  0  0  0  0  0  0  0  0
   22.8683    0.3566    3.8884 C   0  0  0  0  0  0  0  0  0  0  0  0
   21.9880    2.6119    3.9233 C   0  0  0  0  0  0  0  0  0  0  0  0
   26.8856    2.1262    4.7215 C   0  0  0  0  0  0  0  0  0  0  0  0
   27.9336    1.3019    4.9558 N   0  0  0  0  0  0  0  0  0  0  0  0
   29.0640    1.9609    4.8056 N   0  0  0  0  0  0  0  0  0  0  0  0
   30.4210    1.3581    4.9883 C   0  0  0  0  0  0  0  0  0  0  0  0
   30.8589    1.5011    6.3939 C   0  0  0  0  0  0  0  0  0  0  0  0
   32.1262    0.9652    6.8568 C   0  0  0  0  0  0  0  0  0  0  0  0
   33.4526    1.3207    6.4336 C   0  0  0  0  0  0  0  0  0  0  0  0
   34.0142    1.1895    5.0949 C   0  0  0  0  0  0  0  0  0  0  0  0
   33.4903    1.8704    4.0583 F   0  0  0  0  0  0  0  0  0  0  0  0
   28.8381    3.2400    4.4693 C   0  0  0  0  0  0  0  0  0  0  0  0
   29.6561    4.3184    4.2132 C   0  0  0  0  0  0  0  0  0  0  0  0
   29.1217    5.5517    3.8937 C   0  0  0  0  0  0  0  0  0  0  0  0
   27.7445    5.6328    3.8489 C   0  0  0  0  0  0  0  0  0  0  0  0
   26.9323    4.5546    4.1048 C   0  0  0  0  0  0  0  0  0  0  0  0
   27.4426    3.3364    4.4186 C   0  0  0  0  0  0  0  0  0  0  0  0
   24.3982    3.1612    3.8652 H   0  0  0  0  0  0  0  0  0  0  0  0
   23.3561    0.7981    6.4739 H   0  0  0  0  0  0  0  0  0  0  0  0
   22.9294    2.5166    6.5517 H   0  0  0  0  0  0  0  0  0  0  0  0
   21.1508    1.0253    7.3508 H   0  0  0  0  0  0  0  0  0  0  0  0
   20.5448    3.0662    6.0644 H   0  0  0  0  0  0  0  0  0  0  0  0
   19.2846    1.7541    5.8400 H   0  0  0  0  0  0  0  0  0  0  0  0
   19.9058    2.8500    3.6988 H   0  0  0  0  0  0  0  0  0  0  0  0
   20.4505    0.7963    2.4595 H   0  0  0  0  0  0  0  0  0  0  0  0
   19.4428    0.3544    3.9320 H   0  0  0  0  0  0  0  0  0  0  0  0
   21.3941   -1.1716    3.6817 H   0  0  0  0  0  0  0  0  0  0  0  0
   21.8989   -0.9270    6.1566 H   0  0  0  0  0  0  0  0  0  0  0  0
   20.1352   -0.6102    5.7259 H   0  0  0  0  0  0  0  0  0  0  0  0
   23.6022   -0.3748    4.2220 H   0  0  0  0  0  0  0  0  0  0  0  0
   23.0019    0.5324    2.8047 H   0  0  0  0  0  0  0  0  0  0  0  0
   22.1579    2.7115    2.8224 H   0  0  0  0  0  0  0  0  0  0  0  0
   22.0686    3.6357    4.3493 H   0  0  0  0  0  0  0  0  0  0  0  0
   31.0139    1.8518    4.2173 H   0  0  0  0  0  0  0  0  0  0  0  0
   30.2877    0.2660    4.8058 H   0  0  0  0  0  0  0  0  0  0  0  0
   30.6986    2.5714    6.7730 H   0  0  0  0  0  0  0  0  0  0  0  0
   30.0470    0.9688    7.0072 H   0  0  0  0  0  0  0  0  0  0  0  0
   31.9933   -0.1907    6.8368 H   0  0  0  0  0  0  0  0  0  0  0  0
   32.1124    1.0984    8.0094 H   0  0  0  0  0  0  0  0  0  0  0  0
   34.1803    0.7490    7.1237 H   0  0  0  0  0  0  0  0  0  0  0  0
   33.7132    2.3977    6.7663 H   0  0  0  0  0  0  0  0  0  0  0  0
   34.2413    0.1032    4.8070 H   0  0  0  0  0  0  0  0  0  0  0  0
   35.0865    1.5812    5.1762 H   0  0  0  0  0  0  0  0  0  0  0  0
   30.7163    4.1834    4.2662 H   0  0  0  0  0  0  0  0  0  0  0  0
   29.7316    6.4205    3.6861 H   0  0  0  0  0  0  0  0  0  0  0  0
   27.3077    6.5791    3.6038 H   0  0  0  0  0  0  0  0  0  0  0  0
   25.8821    4.6909    4.0675 H   0  0  0  0  0  0  0  0  0  0  0  0
  1  2  2  0
  2  3  1  0
  3  4  1  0
  4  5  1  0
  5  6  1  0
  6  7  1  0
  7  8  1  0
  8  9  1  0
  9 10  1  0
 10 11  1  0
 10 12  1  0
  8 13  1  0
  2 14  1  0
 14 15  2  0
 15 16  1  0
 16 17  1  0
 17 18  1  0
 18 19  1  0
 19 20  1  0
 20 21  1  0
 21 22  1  0
 16 23  1  0
 23 24  2  0
 24 25  1  0
 25 26  2  0
 26 27  1  0
 27 28  2  0
 12  4  1  0
 28 14  1  0
 13  4  1  0
 28 23  1  0
 11  6  1  0
  3 29  1  0
  5 30  1  0
  5 31  1  0
  6 32  1  0
  7 33  1  0
  7 34  1  0
  8 35  1  0
  9 36  1  0
  9 37  1  0
 10 38  1  0
 11 39  1  0
 11 40  1  0
 12 41  1  0
 12 42  1  0
 13 43  1  0
 13 44  1  0
 17 45  1  0
 17 46  1  0
 18 47  1  0
 18 48  1  0
 19 49  1  0
 19 50  1  0
 20 51  1  0
 20 52  1  0
 21 53  1  0
 21 54  1  0
 24 55  1  0
 25 56  1  0
 26 57  1  0
 27 58  1  0
M  END
$$$$
