
     RDKit          3D

 58 62  0  0  0  0  0  0  0  0999 V2000
   26.9458    0.7462    5.0882 O   0  0  0  0  0  0  0  0  0  0  0  0
   26.8203    2.0249    5.0097 C   0  0  0  0  0  0  0  0  0  0  0  0
   25.5136    2.4985    4.9916 N   0  0  0  0  0  0  0  0  0  0  0  0
   24.3654    1.6164    5.0635 C   0  0  0  0  0  0  0  0  0  0  0  0
   24.2910    0.7740    6.2816 C   0  0  0  0  0  0  0  0  0  0  0  0
   23.0369   -0.0524    6.2307 C   0  0  0  0  0  0  0  0  0  0  0  0
   21.7713    0.7243    6.1253 C   0  0  0  0  0  0  0  0  0  0  0  0
   21.8841    1.5886    4.8720 C   0  0  0  0  0  0  0  0  0  0  0  0
   21.9128    0.6582    3.7023 C   0  0  0  0  0  0  0  0  0  0  0  0
   23.1727   -0.1776    3.7869 C   0  0  0  0  0  0  0  0  0  0  0  0
   23.1495   -0.9818    5.0445 C   0  0  0  0  0  0  0  0  0  0  0  0
   24.3340    0.7921    3.7991 C   0  0  0  0  0  0  0  0  0  0  0  0
   23.0828    2.4665    5.0170 C   0  0  0  0  0  0  0  0  0  0  0  0
   28.0625    2.7542    4.9507 C   0  0  0  0  0  0  0  0  0  0  0  0
   29.2472    2.1069    4.7599 N   0  0  0  0  0  0  0  0  0  0  0  0
   30.2478    2.9721    4.7534 N   0  0  0  0  0  0  0  0  0  0  0  0
   31.6465    2.6487    4.5758 C   0  0  0  0  0  0  0  0  0  0  0  0
   32.3691    2.3656    5.8448 C   0  0  0  0  0  0  0  0  0  0  0  0
   31.8241    1.2115    6.6349 C   0  0  0  0  0  0  0  0  0  0  0  0
   31.8579   -0.0885    5.8778 C   0  0  0  0  0  0  0  0  0  0  0  0
   31.2848   -1.1723    6.7759 C   0  0  0  0  0  0  0  0  0  0  0  0
   29.9795   -0.8739    7.1285 F   0  0  0  0  0  0  0  0  0  0  0  0
   29.7895    4.2207    4.9371 C   0  0  0  0  0  0  0  0  0  0  0  0
   30.4015    5.4479    5.0164 C   0  0  0  0  0  0  0  0  0  0  0  0
   29.6555    6.5936    5.2261 C   0  0  0  0  0  0  0  0  0  0  0  0
   28.2910    6.4220    5.3471 C   0  0  0  0  0  0  0  0  0  0  0  0
   27.6799    5.1946    5.2675 C   0  0  0  0  0  0  0  0  0  0  0  0
   28.4036    4.0634    5.0606 C   0  0  0  0  0  0  0  0  0  0  0  0
   25.3289    3.5049    4.9115 H   0  0  0  0  0  0  0  0  0  0  0  0
   24.2079    1.4035    7.1851 H   0  0  0  0  0  0  0  0  0  0  0  0
   25.1248    0.0471    6.3365 H   0  0  0  0  0  0  0  0  0  0  0  0
   22.9946   -0.6290    7.1832 H   0  0  0  0  0  0  0  0  0  0  0  0
   20.9509   -0.0130    6.0074 H   0  0  0  0  0  0  0  0  0  0  0  0
   21.5624    1.3806    6.9743 H   0  0  0  0  0  0  0  0  0  0  0  0
   20.9890    2.2494    4.8413 H   0  0  0  0  0  0  0  0  0  0  0  0
   21.9334    1.1919    2.7373 H   0  0  0  0  0  0  0  0  0  0  0  0
   21.0481   -0.0272    3.8152 H   0  0  0  0  0  0  0  0  0  0  0  0
   23.3021   -0.8419    2.9324 H   0  0  0  0  0  0  0  0  0  0  0  0
   22.3948   -1.7740    5.0159 H   0  0  0  0  0  0  0  0  0  0  0  0
   24.1349   -1.5006    5.1598 H   0  0  0  0  0  0  0  0  0  0  0  0
   24.1385    1.5070    2.9470 H   0  0  0  0  0  0  0  0  0  0  0  0
   25.2863    0.3064    3.5404 H   0  0  0  0  0  0  0  0  0  0  0  0
   23.1298    3.2010    4.1994 H   0  0  0  0  0  0  0  0  0  0  0  0
   22.9809    3.0075    5.9746 H   0  0  0  0  0  0  0  0  0  0  0  0
   32.1701    3.5091    4.1019 H   0  0  0  0  0  0  0  0  0  0  0  0
   31.7991    1.7875    3.8610 H   0  0  0  0  0  0  0  0  0  0  0  0
   33.4210    2.1637    5.5946 H   0  0  0  0  0  0  0  0  0  0  0  0
   32.3650    3.2392    6.5032 H   0  0  0  0  0  0  0  0  0  0  0  0
   32.5113    1.0809    7.5114 H   0  0  0  0  0  0  0  0  0  0  0  0
   30.8238    1.4031    7.0549 H   0  0  0  0  0  0  0  0  0  0  0  0
   31.2550   -0.0785    4.9668 H   0  0  0  0  0  0  0  0  0  0  0  0
   32.9140   -0.3539    5.6740 H   0  0  0  0  0  0  0  0  0  0  0  0
   31.8460   -1.2595    7.7297 H   0  0  0  0  0  0  0  0  0  0  0  0
   31.3403   -2.1727    6.2662 H   0  0  0  0  0  0  0  0  0  0  0  0
   31.4747    5.5568    4.9184 H   0  0  0  0  0  0  0  0  0  0  0  0
   30.0935    7.5798    5.2952 H   0  0  0  0  0  0  0  0  0  0  0  0
   27.6918    7.3071    5.5119 H   0  0  0  0  0  0  0  0  0  0  0  0
   26.6366    5.1375    5.3798 H   0  0  0  0  0  0  0  0  0  0  0  0
  1  2  2  0
  2  3  1  0
  3  4  1  0
  4  5  1  0
  5  6  1  0
  6  7  1  0
  7  8  1  0
  8  9  1  0
  9 10  1  0
 10 11  1  0
 10 12  1  0
  8 13  1  0
  2 14  1  0
 14 15  2  0
 15 16  1  0
 16 17  1  0
 17 18  1  0
 18 19  1  0
 19 20  1  0
 20 21  1  0
 21 22  1  0
 16 23  1  0
 23 24  2  0
 24 25  1  0
 25 26  2  0
 26 27  1  0
 27 28  2  0
 12  4  1  0
 28 14  1  0
 13  4  1  0
 28 23  1  0
 11  6  1  0
  3 29  1  0
  5 30  1  0
  5 31  1  0
  6 32  1  0
  7 33  1  0
  7 34  1  0
  8 35  1  0
  9 36  1  0
  9 37  1  0
 10 38  1  0
 11 39  1  0
 11 40  1  0
 12 41  1  0
 12 42  1  0
 13 43  1  0
 13 44  1  0
 17 45  1  0
 17 46  1  0
 18 47  1  0
 18 48  1  0
 19 49  1  0
 19 50  1  0
 20 51  1  0
 20 52  1  0
 21 53  1  0
 21 54  1  0
 24 55  1  0
 25 56  1  0
 26 57  1  0
 27 58  1  0
M  END
$$$$
