
     RDKit          3D

 53 55  0  0  0  0  0  0  0  0999 V2000
   33.6195   -0.3140    3.0943 C   0  0  0  0  0  0  0  0  0  0  0  0
   32.4730    0.1782    3.9803 C   0  0  0  0  0  0  0  0  0  0  0  0
   31.4827    0.8331    3.0582 C   0  0  0  0  0  0  0  0  0  0  0  0
   30.2786    1.1891    3.9459 C   0  0  0  0  0  0  0  0  0  0  0  0
   29.1957    1.6282    2.9834 C   0  0  0  0  0  0  0  0  0  0  0  0
   27.8769    1.6907    3.5930 C   0  0  0  0  0  0  0  0  0  0  0  0
   27.4226    0.5173    4.1204 C   0  0  0  0  0  0  0  0  0  0  0  0
   26.0994    0.3668    4.4100 C   0  0  0  0  0  0  0  0  0  0  0  0
   25.6857   -0.8591    5.0050 O   0  0  0  0  0  0  0  0  0  0  0  0
   25.2335    1.4004    4.1250 C   0  0  0  0  0  0  0  0  0  0  0  0
   25.6601    2.6085    3.5894 C   0  0  0  0  0  0  0  0  0  0  0  0
   27.0297    2.7621    3.3086 C   0  0  0  0  0  0  0  0  0  0  0  0
   24.7814    3.6559    3.3699 O   0  0  0  0  0  0  0  0  0  0  0  0
   23.3592    3.5396    3.6659 C   0  0  0  0  0  0  0  0  0  0  0  0
   22.8901    4.4924    4.6509 C   0  0  0  0  0  0  0  0  0  0  0  0
   22.8106    4.1708    2.2767 C   0  0  0  0  0  0  0  0  0  0  0  0
   22.9745    2.1553    3.5871 C   0  0  2  0  0  0  0  0  0  0  0  0
   21.4830    1.8962    3.8897 C   0  0  0  0  0  0  0  0  0  0  0  0
   21.1226    0.4503    3.8805 C   0  0  0  0  0  0  0  0  0  0  0  0
   22.1561   -0.4507    3.3969 C   0  0  0  0  0  0  0  0  0  0  0  0
   21.9045   -1.7002    2.5880 C   0  0  0  0  0  0  0  0  0  0  0  0
   23.4319   -0.1292    3.6381 C   0  0  0  0  0  0  0  0  0  0  0  0
   23.7684    1.1713    4.3972 C   0  0  1  0  0  0  0  0  0  0  0  0
   34.4953    0.3130    3.2723 H   0  0  0  0  0  0  0  0  0  0  0  0
   33.2913   -0.2777    2.0008 H   0  0  0  0  0  0  0  0  0  0  0  0
   33.7818   -1.3696    3.3974 H   0  0  0  0  0  0  0  0  0  0  0  0
   32.8093    0.9825    4.6853 H   0  0  0  0  0  0  0  0  0  0  0  0
   31.9612   -0.6460    4.5063 H   0  0  0  0  0  0  0  0  0  0  0  0
   31.8454    1.8146    2.6867 H   0  0  0  0  0  0  0  0  0  0  0  0
   31.1065    0.1876    2.2846 H   0  0  0  0  0  0  0  0  0  0  0  0
   30.4922    2.0726    4.5587 H   0  0  0  0  0  0  0  0  0  0  0  0
   29.9184    0.3355    4.5088 H   0  0  0  0  0  0  0  0  0  0  0  0
   29.0990    0.9639    2.0865 H   0  0  0  0  0  0  0  0  0  0  0  0
   29.4469    2.6635    2.6707 H   0  0  0  0  0  0  0  0  0  0  0  0
   28.0440   -0.3663    4.2705 H   0  0  0  0  0  0  0  0  0  0  0  0
   25.9992   -1.6927    4.5621 H   0  0  0  0  0  0  0  0  0  0  0  0
   27.3873    3.6771    2.9388 H   0  0  0  0  0  0  0  0  0  0  0  0
   23.3830    5.4940    4.4451 H   0  0  0  0  0  0  0  0  0  0  0  0
   23.0352    4.2688    5.6972 H   0  0  0  0  0  0  0  0  0  0  0  0
   21.7716    4.7949    4.5071 H   0  0  0  0  0  0  0  0  0  0  0  0
   23.3259    3.4494    1.5800 H   0  0  0  0  0  0  0  0  0  0  0  0
   23.2450    5.1384    2.1353 H   0  0  0  0  0  0  0  0  0  0  0  0
   21.7524    4.0200    2.2625 H   0  0  0  0  0  0  0  0  0  0  0  0
   23.0658    1.8017    2.4887 H   0  0  0  0  0  0  0  0  0  0  0  0
   21.2748    2.3581    4.8767 H   0  0  0  0  0  0  0  0  0  0  0  0
   20.8184    2.4062    3.1441 H   0  0  0  0  0  0  0  0  0  0  0  0
   20.1716    0.2694    3.3005 H   0  0  0  0  0  0  0  0  0  0  0  0
   20.9633    0.1332    4.9715 H   0  0  0  0  0  0  0  0  0  0  0  0
   22.6995   -1.6969    1.7879 H   0  0  0  0  0  0  0  0  0  0  0  0
   22.2199   -2.5493    3.2373 H   0  0  0  0  0  0  0  0  0  0  0  0
   20.8936   -1.7175    2.2046 H   0  0  0  0  0  0  0  0  0  0  0  0
   24.1955   -0.7992    3.2858 H   0  0  0  0  0  0  0  0  0  0  0  0
   23.5620    1.0879    5.4159 H   0  0  0  0  0  0  0  0  0  0  0  0
  1  2  1  0
  2  3  1  0
  3  4  1  0
  4  5  1  0
  5  6  1  0
  6  7  2  0
  7  8  1  0
  8  9  1  0
  8 10  2  0
 10 11  1  0
 11 12  2  0
 11 13  1  0
 13 14  1  0
 14 15  1  0
 14 16  1  0
 14 17  1  0
 17 18  1  0
 18 19  1  0
 19 20  1  0
 20 21  1  0
 20 22  2  0
 22 23  1  0
 12  6  1  0
 23 17  1  0
 23 10  1  0
  1 24  1  0
  1 25  1  0
  1 26  1  0
  2 27  1  0
  2 28  1  0
  3 29  1  0
  3 30  1  0
  4 31  1  0
  4 32  1  0
  5 33  1  0
  5 34  1  0
  7 35  1  0
  9 36  1  0
 12 37  1  0
 15 38  1  0
 15 39  1  0
 15 40  1  0
 16 41  1  0
 16 42  1  0
 16 43  1  0
 17 44  1  6
 18 45  1  0
 18 46  1  0
 19 47  1  0
 19 48  1  0
 21 49  1  0
 21 50  1  0
 21 51  1  0
 22 52  1  0
 23 53  1  1
M  END
$$$$
