
     RDKit          3D

 53 55  0  0  0  0  0  0  0  0999 V2000
   32.9552    2.3479    5.1813 C   0  0  0  0  0  0  0  0  0  0  0  0
   32.5803    1.1158    4.4307 C   0  0  0  0  0  0  0  0  0  0  0  0
   31.2890    1.3405    3.7178 C   0  0  0  0  0  0  0  0  0  0  0  0
   30.9846    0.0693    2.9943 C   0  0  0  0  0  0  0  0  0  0  0  0
   29.7692    0.0933    2.2035 C   0  0  0  0  0  0  0  0  0  0  0  0
   28.5223    0.3887    2.8891 C   0  0  0  0  0  0  0  0  0  0  0  0
   27.9815   -0.6103    3.6963 C   0  0  0  0  0  0  0  0  0  0  0  0
   26.7292   -0.4160    4.2581 C   0  0  0  0  0  0  0  0  0  0  0  0
   26.1162   -1.3107    5.0834 O   0  0  0  0  0  0  0  0  0  0  0  0
   26.0114    0.7638    4.0107 C   0  0  0  0  0  0  0  0  0  0  0  0
   26.5582    1.7690    3.2199 C   0  0  0  0  0  0  0  0  0  0  0  0
   27.8249    1.5813    2.6480 C   0  0  0  0  0  0  0  0  0  0  0  0
   25.9625    3.0069    2.9619 O   0  0  0  0  0  0  0  0  0  0  0  0
   24.6837    3.3072    3.5356 C   0  0  0  0  0  0  0  0  0  0  0  0
   23.9549    3.7813    2.1403 C   0  0  0  0  0  0  0  0  0  0  0  0
   24.6160    4.5199    4.3361 C   0  0  0  0  0  0  0  0  0  0  0  0
   23.9952    2.0573    3.8576 C   0  0  2  0  0  0  0  0  0  0  0  0
   22.6327    2.3165    4.4719 C   0  0  0  0  0  0  0  0  0  0  0  0
   21.9142    1.0666    4.8143 C   0  0  0  0  0  0  0  0  0  0  0  0
   22.5309   -0.1546    4.2664 C   0  0  0  0  0  0  0  0  0  0  0  0
   21.6651   -1.2835    3.7323 C   0  0  0  0  0  0  0  0  0  0  0  0
   23.8285   -0.2378    4.1725 C   0  0  0  0  0  0  0  0  0  0  0  0
   24.7000    1.0036    4.6561 C   0  0  1  0  0  0  0  0  0  0  0  0
   33.2600    3.0913    4.4178 H   0  0  0  0  0  0  0  0  0  0  0  0
   32.1001    2.7262    5.7664 H   0  0  0  0  0  0  0  0  0  0  0  0
   33.7945    2.1249    5.8899 H   0  0  0  0  0  0  0  0  0  0  0  0
   32.5426    0.1812    5.0609 H   0  0  0  0  0  0  0  0  0  0  0  0
   33.3231    0.9484    3.6049 H   0  0  0  0  0  0  0  0  0  0  0  0
   31.3908    2.1277    2.8956 H   0  0  0  0  0  0  0  0  0  0  0  0
   30.4380    1.6314    4.4009 H   0  0  0  0  0  0  0  0  0  0  0  0
   30.9564   -0.8417    3.6733 H   0  0  0  0  0  0  0  0  0  0  0  0
   31.8323   -0.1024    2.2663 H   0  0  0  0  0  0  0  0  0  0  0  0
   29.6755   -0.9012    1.6582 H   0  0  0  0  0  0  0  0  0  0  0  0
   29.8063    0.8188    1.3216 H   0  0  0  0  0  0  0  0  0  0  0  0
   28.5208   -1.5111    3.8892 H   0  0  0  0  0  0  0  0  0  0  0  0
   26.3462   -2.3020    5.1005 H   0  0  0  0  0  0  0  0  0  0  0  0
   28.2953    2.3301    2.0098 H   0  0  0  0  0  0  0  0  0  0  0  0
   24.5725    4.6124    1.8755 H   0  0  0  0  0  0  0  0  0  0  0  0
   24.1397    2.8861    1.4723 H   0  0  0  0  0  0  0  0  0  0  0  0
   22.9259    3.9819    2.3808 H   0  0  0  0  0  0  0  0  0  0  0  0
   23.6840    5.1634    4.1590 H   0  0  0  0  0  0  0  0  0  0  0  0
   25.4202    5.2463    3.9100 H   0  0  0  0  0  0  0  0  0  0  0  0
   24.7279    4.4277    5.4683 H   0  0  0  0  0  0  0  0  0  0  0  0
   23.7745    1.5805    2.8454 H   0  0  0  0  0  0  0  0  0  0  0  0
   21.9851    2.9599    3.8345 H   0  0  0  0  0  0  0  0  0  0  0  0
   22.8166    2.8758    5.4338 H   0  0  0  0  0  0  0  0  0  0  0  0
   20.8715    1.1439    4.5662 H   0  0  0  0  0  0  0  0  0  0  0  0
   21.8835    0.8678    5.9567 H   0  0  0  0  0  0  0  0  0  0  0  0
   22.2621   -2.0895    3.2665 H   0  0  0  0  0  0  0  0  0  0  0  0
   20.8764   -1.5702    4.4262 H   0  0  0  0  0  0  0  0  0  0  0  0
   21.1455   -0.7727    2.8524 H   0  0  0  0  0  0  0  0  0  0  0  0
   24.3376   -1.0963    3.7840 H   0  0  0  0  0  0  0  0  0  0  0  0
   24.6601    0.9972    5.6843 H   0  0  0  0  0  0  0  0  0  0  0  0
  1  2  1  0
  2  3  1  0
  3  4  1  0
  4  5  1  0
  5  6  1  0
  6  7  2  0
  7  8  1  0
  8  9  1  0
  8 10  2  0
 10 11  1  0
 11 12  2  0
 11 13  1  0
 13 14  1  0
 14 15  1  0
 14 16  1  0
 14 17  1  0
 17 18  1  0
 18 19  1  0
 19 20  1  0
 20 21  1  0
 20 22  2  0
 22 23  1  0
 12  6  1  0
 23 17  1  0
 23 10  1  0
  1 24  1  0
  1 25  1  0
  1 26  1  0
  2 27  1  0
  2 28  1  0
  3 29  1  0
  3 30  1  0
  4 31  1  0
  4 32  1  0
  5 33  1  0
  5 34  1  0
  7 35  1  0
  9 36  1  0
 12 37  1  0
 15 38  1  0
 15 39  1  0
 15 40  1  0
 16 41  1  0
 16 42  1  0
 16 43  1  0
 17 44  1  6
 18 45  1  0
 18 46  1  0
 19 47  1  0
 19 48  1  0
 21 49  1  0
 21 50  1  0
 21 51  1  0
 22 52  1  0
 23 53  1  1
M  END
$$$$
