
     RDKit          3D

 53 55  0  0  0  0  0  0  0  0999 V2000
   33.1499    2.6853    3.7989 C   0  0  0  0  0  0  0  0  0  0  0  0
   31.9901    1.8987    3.2320 C   0  0  0  0  0  0  0  0  0  0  0  0
   31.9603    0.5280    3.8739 C   0  0  0  0  0  0  0  0  0  0  0  0
   31.2588   -0.4476    2.9901 C   0  0  0  0  0  0  0  0  0  0  0  0
   30.0134    0.0052    2.3950 C   0  0  0  0  0  0  0  0  0  0  0  0
   28.8158    0.2836    3.1952 C   0  0  0  0  0  0  0  0  0  0  0  0
   28.1620   -0.8405    3.7827 C   0  0  0  0  0  0  0  0  0  0  0  0
   26.8108   -0.5757    4.0929 C   0  0  0  0  0  0  0  0  0  0  0  0
   26.1538   -1.6891    4.6732 O   0  0  0  0  0  0  0  0  0  0  0  0
   26.1651    0.5636    3.8741 C   0  0  0  0  0  0  0  0  0  0  0  0
   26.8718    1.6124    3.3864 C   0  0  0  0  0  0  0  0  0  0  0  0
   28.1739    1.4332    3.0690 C   0  0  0  0  0  0  0  0  0  0  0  0
   26.2931    2.8352    3.2776 O   0  0  0  0  0  0  0  0  0  0  0  0
   24.9401    3.0993    3.5680 C   0  0  0  0  0  0  0  0  0  0  0  0
   24.5545    3.5572    4.8661 C   0  0  0  0  0  0  0  0  0  0  0  0
   24.6053    4.2158    2.5049 C   0  0  0  0  0  0  0  0  0  0  0  0
   24.2581    1.9291    3.0057 C   0  0  2  0  0  0  0  0  0  0  0  0
   22.7886    1.8815    2.9737 C   0  0  0  0  0  0  0  0  0  0  0  0
   22.1062    1.1873    4.1499 C   0  0  0  0  0  0  0  0  0  0  0  0
   22.5178   -0.2259    3.5711 C   0  0  0  0  0  0  0  0  0  0  0  0
   21.4809   -1.1542    3.1098 C   0  0  0  0  0  0  0  0  0  0  0  0
   23.8245   -0.3867    3.5019 C   0  0  0  0  0  0  0  0  0  0  0  0
   24.7098    0.6737    3.9371 C   0  0  1  0  0  0  0  0  0  0  0  0
   33.0185    3.7411    3.5819 H   0  0  0  0  0  0  0  0  0  0  0  0
   34.0922    2.3511    3.2404 H   0  0  0  0  0  0  0  0  0  0  0  0
   33.3660    2.5188    4.8458 H   0  0  0  0  0  0  0  0  0  0  0  0
   31.0842    2.4414    3.7067 H   0  0  0  0  0  0  0  0  0  0  0  0
   31.9512    1.9597    2.1766 H   0  0  0  0  0  0  0  0  0  0  0  0
   33.0434    0.2086    3.9027 H   0  0  0  0  0  0  0  0  0  0  0  0
   31.5664    0.5413    4.8730 H   0  0  0  0  0  0  0  0  0  0  0  0
   31.9157   -0.9316    2.2414 H   0  0  0  0  0  0  0  0  0  0  0  0
   30.9481   -1.3101    3.6850 H   0  0  0  0  0  0  0  0  0  0  0  0
   29.7334   -0.7334    1.5716 H   0  0  0  0  0  0  0  0  0  0  0  0
   30.2307    0.9331    1.7144 H   0  0  0  0  0  0  0  0  0  0  0  0
   28.7143   -1.7036    3.9707 H   0  0  0  0  0  0  0  0  0  0  0  0
   25.3536   -2.1573    4.6193 H   0  0  0  0  0  0  0  0  0  0  0  0
   28.7189    2.3026    2.6352 H   0  0  0  0  0  0  0  0  0  0  0  0
   23.4137    3.6624    4.9607 H   0  0  0  0  0  0  0  0  0  0  0  0
   24.9227    4.5920    5.0581 H   0  0  0  0  0  0  0  0  0  0  0  0
   24.9379    2.9104    5.7069 H   0  0  0  0  0  0  0  0  0  0  0  0
   23.8036    3.8667    1.8412 H   0  0  0  0  0  0  0  0  0  0  0  0
   24.3600    5.1347    3.0253 H   0  0  0  0  0  0  0  0  0  0  0  0
   25.4974    4.4165    1.8692 H   0  0  0  0  0  0  0  0  0  0  0  0
   24.6790    1.6042    2.0632 H   0  0  0  0  0  0  0  0  0  0  0  0
   22.3995    2.9908    3.0835 H   0  0  0  0  0  0  0  0  0  0  0  0
   22.4011    1.5699    2.0248 H   0  0  0  0  0  0  0  0  0  0  0  0
   21.0070    1.2820    3.9393 H   0  0  0  0  0  0  0  0  0  0  0  0
   22.4901    1.4113    5.0666 H   0  0  0  0  0  0  0  0  0  0  0  0
   21.1430   -0.7032    2.1035 H   0  0  0  0  0  0  0  0  0  0  0  0
   20.5735   -1.0754    3.7399 H   0  0  0  0  0  0  0  0  0  0  0  0
   21.7852   -2.1904    2.9958 H   0  0  0  0  0  0  0  0  0  0  0  0
   24.1655   -1.2759    2.9211 H   0  0  0  0  0  0  0  0  0  0  0  0
   24.4585    0.9537    5.0308 H   0  0  0  0  0  0  0  0  0  0  0  0
  1  2  1  0
  2  3  1  0
  3  4  1  0
  4  5  1  0
  5  6  1  0
  6  7  2  0
  7  8  1  0
  8  9  1  0
  8 10  2  0
 10 11  1  0
 11 12  2  0
 11 13  1  0
 13 14  1  0
 14 15  1  0
 14 16  1  0
 14 17  1  0
 17 18  1  0
 18 19  1  0
 19 20  1  0
 20 21  1  0
 20 22  2  0
 22 23  1  0
 12  6  1  0
 23 17  1  0
 23 10  1  0
  1 24  1  0
  1 25  1  0
  1 26  1  0
  2 27  1  0
  2 28  1  0
  3 29  1  0
  3 30  1  0
  4 31  1  0
  4 32  1  0
  5 33  1  0
  5 34  1  0
  7 35  1  0
  9 36  1  0
 12 37  1  0
 15 38  1  0
 15 39  1  0
 15 40  1  0
 16 41  1  0
 16 42  1  0
 16 43  1  0
 17 44  1  6
 18 45  1  0
 18 46  1  0
 19 47  1  0
 19 48  1  0
 21 49  1  0
 21 50  1  0
 21 51  1  0
 22 52  1  0
 23 53  1  1
M  END
$$$$
