
     RDKit          3D

 53 55  0  0  0  0  0  0  0  0999 V2000
   33.7659    1.1074    3.4871 C   0  0  0  0  0  0  0  0  0  0  0  0
   32.3367    0.5079    3.3320 C   0  0  0  0  0  0  0  0  0  0  0  0
   31.4726    1.5220    2.6491 C   0  0  0  0  0  0  0  0  0  0  0  0
   30.0316    1.1193    2.5499 C   0  0  0  0  0  0  0  0  0  0  0  0
   29.5206    0.9699    3.9852 C   0  0  0  0  0  0  0  0  0  0  0  0
   28.0716    0.7718    4.0689 C   0  0  0  0  0  0  0  0  0  0  0  0
   27.3995   -0.3642    4.4373 C   0  0  0  0  0  0  0  0  0  0  0  0
   26.0084   -0.3742    4.4882 C   0  0  0  0  0  0  0  0  0  0  0  0
   25.4198   -1.5963    4.8751 O   0  0  0  0  0  0  0  0  0  0  0  0
   25.2470    0.7092    4.1875 C   0  0  0  0  0  0  0  0  0  0  0  0
   25.8964    1.8700    3.8240 C   0  0  0  0  0  0  0  0  0  0  0  0
   27.2745    1.8560    3.7727 C   0  0  0  0  0  0  0  0  0  0  0  0
   25.2956    3.0871    3.5482 O   0  0  0  0  0  0  0  0  0  0  0  0
   23.8690    3.3084    3.7066 C   0  0  0  0  0  0  0  0  0  0  0  0
   23.6854    4.1417    4.9044 C   0  0  0  0  0  0  0  0  0  0  0  0
   23.5225    4.1280    2.4511 C   0  0  0  0  0  0  0  0  0  0  0  0
   23.2670    2.0006    3.5622 C   0  0  2  0  0  0  0  0  0  0  0  0
   21.7468    2.0677    3.6985 C   0  0  0  0  0  0  0  0  0  0  0  0
   21.0451    0.7711    3.5809 C   0  0  0  0  0  0  0  0  0  0  0  0
   21.9701   -0.3340    3.2432 C   0  0  0  0  0  0  0  0  0  0  0  0
   21.4081   -1.4658    2.4311 C   0  0  0  0  0  0  0  0  0  0  0  0
   23.2038   -0.3446    3.5940 C   0  0  0  0  0  0  0  0  0  0  0  0
   23.7663    0.8306    4.3752 C   0  0  1  0  0  0  0  0  0  0  0  0
   34.0708    0.9772    4.5822 H   0  0  0  0  0  0  0  0  0  0  0  0
   33.7141    2.1659    3.2494 H   0  0  0  0  0  0  0  0  0  0  0  0
   34.4386    0.5140    2.8517 H   0  0  0  0  0  0  0  0  0  0  0  0
   32.4499   -0.4348    2.7022 H   0  0  0  0  0  0  0  0  0  0  0  0
   32.0028    0.1743    4.3199 H   0  0  0  0  0  0  0  0  0  0  0  0
   31.4709    2.5052    3.1925 H   0  0  0  0  0  0  0  0  0  0  0  0
   31.8601    1.7195    1.6464 H   0  0  0  0  0  0  0  0  0  0  0  0
   29.9411    0.1458    2.0860 H   0  0  0  0  0  0  0  0  0  0  0  0
   29.4846    1.9075    2.0224 H   0  0  0  0  0  0  0  0  0  0  0  0
   30.0061    0.0750    4.4751 H   0  0  0  0  0  0  0  0  0  0  0  0
   29.8356    1.8316    4.5559 H   0  0  0  0  0  0  0  0  0  0  0  0
   27.9606   -1.2431    4.6946 H   0  0  0  0  0  0  0  0  0  0  0  0
   25.2709   -1.6566    5.8863 H   0  0  0  0  0  0  0  0  0  0  0  0
   27.7717    2.7773    3.4626 H   0  0  0  0  0  0  0  0  0  0  0  0
   23.5249    5.2344    4.6107 H   0  0  0  0  0  0  0  0  0  0  0  0
   24.6605    4.2146    5.5002 H   0  0  0  0  0  0  0  0  0  0  0  0
   22.9237    3.8623    5.6223 H   0  0  0  0  0  0  0  0  0  0  0  0
   22.8662    3.4629    1.7854 H   0  0  0  0  0  0  0  0  0  0  0  0
   24.4058    4.3581    1.8277 H   0  0  0  0  0  0  0  0  0  0  0  0
   22.9692    5.0116    2.6897 H   0  0  0  0  0  0  0  0  0  0  0  0
   23.3880    1.7088    2.4729 H   0  0  0  0  0  0  0  0  0  0  0  0
   21.3306    2.7770    2.9561 H   0  0  0  0  0  0  0  0  0  0  0  0
   21.4822    2.5367    4.6838 H   0  0  0  0  0  0  0  0  0  0  0  0
   20.2277    0.8373    2.8289 H   0  0  0  0  0  0  0  0  0  0  0  0
   20.5779    0.5742    4.6216 H   0  0  0  0  0  0  0  0  0  0  0  0
   20.4384   -1.8130    2.8234 H   0  0  0  0  0  0  0  0  0  0  0  0
   21.2077   -1.0401    1.3909 H   0  0  0  0  0  0  0  0  0  0  0  0
   22.1092   -2.2899    2.3091 H   0  0  0  0  0  0  0  0  0  0  0  0
   23.8698   -1.1953    3.3366 H   0  0  0  0  0  0  0  0  0  0  0  0
   23.4590    0.7919    5.3919 H   0  0  0  0  0  0  0  0  0  0  0  0
  1  2  1  0
  2  3  1  0
  3  4  1  0
  4  5  1  0
  5  6  1  0
  6  7  2  0
  7  8  1  0
  8  9  1  0
  8 10  2  0
 10 11  1  0
 11 12  2  0
 11 13  1  0
 13 14  1  0
 14 15  1  0
 14 16  1  0
 14 17  1  0
 17 18  1  0
 18 19  1  0
 19 20  1  0
 20 21  1  0
 20 22  2  0
 22 23  1  0
 12  6  1  0
 23 17  1  0
 23 10  1  0
  1 24  1  0
  1 25  1  0
  1 26  1  0
  2 27  1  0
  2 28  1  0
  3 29  1  0
  3 30  1  0
  4 31  1  0
  4 32  1  0
  5 33  1  0
  5 34  1  0
  7 35  1  0
  9 36  1  0
 12 37  1  0
 15 38  1  0
 15 39  1  0
 15 40  1  0
 16 41  1  0
 16 42  1  0
 16 43  1  0
 17 44  1  6
 18 45  1  0
 18 46  1  0
 19 47  1  0
 19 48  1  0
 21 49  1  0
 21 50  1  0
 21 51  1  0
 22 52  1  0
 23 53  1  1
M  END
$$$$
