
     RDKit          3D

 53 54  0  0  0  0  0  0  0  0999 V2000
   21.7952    0.5087    3.6428 C   0  0  0  0  0  0  0  0  0  0  0  0
   21.8250    2.0072    3.3686 C   0  0  0  0  0  0  0  0  0  0  0  0
   22.5782    2.7660    4.4581 C   0  0  0  0  0  0  0  0  0  0  0  0
   22.6456    4.2637    4.1730 C   0  0  0  0  0  0  0  0  0  0  0  0
   23.4204    5.0269    5.2559 C   0  0  0  0  0  0  0  0  0  0  0  0
   24.8418    4.5501    5.3317 C   0  0  0  0  0  0  0  0  0  0  0  0
   25.7505    4.9090    4.3519 C   0  0  0  0  0  0  0  0  0  0  0  0
   27.0463    4.4062    4.3630 C   0  0  0  0  0  0  0  0  0  0  0  0
   27.8708    4.7925    3.3538 O   0  0  0  0  0  0  0  0  0  0  0  0
   27.4612    3.5294    5.3672 C   0  0  0  0  0  0  0  0  0  0  0  0
   28.8173    2.8640    5.3411 C   0  0  2  0  0  0  0  0  0  0  0  0
   29.9344    3.8376    5.0887 C   0  0  0  0  0  0  0  0  0  0  0  0
   30.9741    3.6098    4.2930 C   0  0  0  0  0  0  0  0  0  0  0  0
   32.0603    4.6194    4.0802 C   0  0  0  0  0  0  0  0  0  0  0  0
   31.1214    2.3210    3.5320 C   0  0  0  0  0  0  0  0  0  0  0  0
   30.2455    1.2182    4.1197 C   0  0  0  0  0  0  0  0  0  0  0  0
   28.8155    1.7316    4.2861 C   0  0  1  0  0  0  0  0  0  0  0  0
   27.8203    0.6652    4.6697 C   0  0  0  0  0  0  0  0  0  0  0  0
   28.2337   -0.3269    5.7127 C   0  0  0  0  0  0  0  0  0  0  0  0
   26.6128    0.6435    4.1265 C   0  0  0  0  0  0  0  0  0  0  0  0
   26.5456    3.1942    6.3645 C   0  0  0  0  0  0  0  0  0  0  0  0
   26.9525    2.3498    7.3603 O   0  0  0  0  0  0  0  0  0  0  0  0
   25.2549    3.7010    6.3475 C   0  0  0  0  0  0  0  0  0  0  0  0
   21.2570   -0.0159    2.8567 H   0  0  0  0  0  0  0  0  0  0  0  0
   22.8072    0.1125    3.6898 H   0  0  0  0  0  0  0  0  0  0  0  0
   21.3030    0.3035    4.5913 H   0  0  0  0  0  0  0  0  0  0  0  0
   22.3081    2.1889    2.4059 H   0  0  0  0  0  0  0  0  0  0  0  0
   20.8021    2.3860    3.3020 H   0  0  0  0  0  0  0  0  0  0  0  0
   22.0839    2.6015    5.4190 H   0  0  0  0  0  0  0  0  0  0  0  0
   23.5936    2.3709    4.5338 H   0  0  0  0  0  0  0  0  0  0  0  0
   23.1336    4.4223    3.2093 H   0  0  0  0  0  0  0  0  0  0  0  0
   21.6326    4.6680    4.1067 H   0  0  0  0  0  0  0  0  0  0  0  0
   23.4026    6.0924    5.0169 H   0  0  0  0  0  0  0  0  0  0  0  0
   22.9275    4.8847    6.2196 H   0  0  0  0  0  0  0  0  0  0  0  0
   25.4699    5.5760    3.5522 H   0  0  0  0  0  0  0  0  0  0  0  0
   28.7682    4.4688    3.5383 H   0  0  0  0  0  0  0  0  0  0  0  0
   28.9743    2.4218    6.3312 H   0  0  0  0  0  0  0  0  0  0  0  0
   29.8673    4.7665    5.6422 H   0  0  0  0  0  0  0  0  0  0  0  0
   32.1769    4.8293    3.0171 H   0  0  0  0  0  0  0  0  0  0  0  0
   33.0118    4.2334    4.4459 H   0  0  0  0  0  0  0  0  0  0  0  0
   31.8408    5.5489    4.5993 H   0  0  0  0  0  0  0  0  0  0  0  0
   32.1699    2.0122    3.5429 H   0  0  0  0  0  0  0  0  0  0  0  0
   30.8503    2.4927    2.4841 H   0  0  0  0  0  0  0  0  0  0  0  0
   30.2566    0.3465    3.4621 H   0  0  0  0  0  0  0  0  0  0  0  0
   30.6462    0.9230    5.0908 H   0  0  0  0  0  0  0  0  0  0  0  0
   28.4933    2.1587    3.3296 H   0  0  0  0  0  0  0  0  0  0  0  0
   28.5600    0.1861    6.6156 H   0  0  0  0  0  0  0  0  0  0  0  0
   29.0582   -0.9420    5.3547 H   0  0  0  0  0  0  0  0  0  0  0  0
   27.4023   -0.9788    5.9676 H   0  0  0  0  0  0  0  0  0  0  0  0
   25.8758   -0.0902    4.4082 H   0  0  0  0  0  0  0  0  0  0  0  0
   26.3062    1.3613    3.3840 H   0  0  0  0  0  0  0  0  0  0  0  0
   26.2112    2.1905    7.9556 H   0  0  0  0  0  0  0  0  0  0  0  0
   24.5614    3.4148    7.1277 H   0  0  0  0  0  0  0  0  0  0  0  0
  1  2  1  0
  2  3  1  0
  3  4  1  0
  4  5  1  0
  5  6  1  0
  6  7  2  0
  7  8  1  0
  8  9  1  0
  8 10  2  0
 10 11  1  0
 11 12  1  0
 12 13  2  0
 13 14  1  0
 13 15  1  0
 15 16  1  0
 16 17  1  0
 17 18  1  0
 18 19  1  0
 18 20  2  0
 10 21  1  0
 21 22  1  0
 21 23  2  0
 23  6  1  0
 17 11  1  0
  1 24  1  0
  1 25  1  0
  1 26  1  0
  2 27  1  0
  2 28  1  0
  3 29  1  0
  3 30  1  0
  4 31  1  0
  4 32  1  0
  5 33  1  0
  5 34  1  0
  7 35  1  0
  9 36  1  0
 11 37  1  1
 12 38  1  0
 14 39  1  0
 14 40  1  0
 14 41  1  0
 15 42  1  0
 15 43  1  0
 16 44  1  0
 16 45  1  0
 17 46  1  6
 19 47  1  0
 19 48  1  0
 19 49  1  0
 20 50  1  0
 20 51  1  0
 22 52  1  0
 23 53  1  0
M  END
$$$$
