
     RDKit          3D

 53 54  0  0  0  0  0  0  0  0999 V2000
   21.7354   -0.6349    5.0675 C   0  0  0  0  0  0  0  0  0  0  0  0
   21.6944    0.7073    4.7995 C   0  0  0  0  0  0  0  0  0  0  0  0
   20.9507    1.0638    3.5952 C   0  0  0  0  0  0  0  0  0  0  0  0
   22.4176    1.6020    5.7451 C   0  0  2  0  0  0  0  0  0  0  0  0
   21.4222    2.3256    6.6961 C   0  0  0  0  0  0  0  0  0  0  0  0
   20.7930    3.4623    5.8498 C   0  0  0  0  0  0  0  0  0  0  0  0
   21.9414    4.4858    5.9428 C   0  0  0  0  0  0  0  0  0  0  0  0
   21.7548    5.8844    6.3361 C   0  0  0  0  0  0  0  0  0  0  0  0
   23.1260    3.9837    5.6631 C   0  0  0  0  0  0  0  0  0  0  0  0
   23.3632    2.5289    5.2584 C   0  0  1  0  0  0  0  0  0  0  0  0
   24.8404    2.4604    5.2738 C   0  0  0  0  0  0  0  0  0  0  0  0
   25.5135    2.5421    6.4858 C   0  0  0  0  0  0  0  0  0  0  0  0
   24.8810    2.2878    7.6904 O   0  0  0  0  0  0  0  0  0  0  0  0
   26.8517    2.8881    6.4812 C   0  0  0  0  0  0  0  0  0  0  0  0
   27.5313    3.1575    5.3064 C   0  0  0  0  0  0  0  0  0  0  0  0
   28.8215    3.7840    5.1591 C   0  0  0  0  0  0  0  0  0  0  0  0
   30.0815    3.1603    4.9471 C   0  0  0  0  0  0  0  0  0  0  0  0
   30.6748    2.2757    6.0015 C   0  0  0  0  0  0  0  0  0  0  0  0
   32.0796    1.8875    5.4012 C   0  0  0  0  0  0  0  0  0  0  0  0
   32.8313    1.1498    6.4415 C   0  0  0  0  0  0  0  0  0  0  0  0
   26.8194    3.0531    4.0666 C   0  0  0  0  0  0  0  0  0  0  0  0
   25.5000    2.7086    4.0590 C   0  0  0  0  0  0  0  0  0  0  0  0
   24.8118    2.5933    2.8414 O   0  0  0  0  0  0  0  0  0  0  0  0
   22.2938   -0.9832    5.9779 H   0  0  0  0  0  0  0  0  0  0  0  0
   21.2602   -1.3612    4.4272 H   0  0  0  0  0  0  0  0  0  0  0  0
   20.9083    0.1980    2.8665 H   0  0  0  0  0  0  0  0  0  0  0  0
   19.8905    1.3241    3.7660 H   0  0  0  0  0  0  0  0  0  0  0  0
   21.5222    1.8362    3.0460 H   0  0  0  0  0  0  0  0  0  0  0  0
   22.8735    0.9072    6.5156 H   0  0  0  0  0  0  0  0  0  0  0  0
   21.9368    2.7772    7.5214 H   0  0  0  0  0  0  0  0  0  0  0  0
   20.6240    1.6263    6.9695 H   0  0  0  0  0  0  0  0  0  0  0  0
   20.0073    3.8739    6.4482 H   0  0  0  0  0  0  0  0  0  0  0  0
   20.6923    3.2244    4.8252 H   0  0  0  0  0  0  0  0  0  0  0  0
   22.1645    6.0242    7.3664 H   0  0  0  0  0  0  0  0  0  0  0  0
   22.4189    6.4743    5.6608 H   0  0  0  0  0  0  0  0  0  0  0  0
   20.7212    6.2315    6.2329 H   0  0  0  0  0  0  0  0  0  0  0  0
   23.9366    4.7005    5.7229 H   0  0  0  0  0  0  0  0  0  0  0  0
   23.0790    2.6314    4.1051 H   0  0  0  0  0  0  0  0  0  0  0  0
   24.7962    1.3050    7.9203 H   0  0  0  0  0  0  0  0  0  0  0  0
   27.4261    2.9467    7.3794 H   0  0  0  0  0  0  0  0  0  0  0  0
   28.6883    4.7422    4.5078 H   0  0  0  0  0  0  0  0  0  0  0  0
   28.9384    4.3441    6.2283 H   0  0  0  0  0  0  0  0  0  0  0  0
   30.1289    2.5361    3.9750 H   0  0  0  0  0  0  0  0  0  0  0  0
   30.8571    3.9626    4.6488 H   0  0  0  0  0  0  0  0  0  0  0  0
   30.0818    1.3315    6.1396 H   0  0  0  0  0  0  0  0  0  0  0  0
   30.7979    2.7986    6.9481 H   0  0  0  0  0  0  0  0  0  0  0  0
   31.9038    1.3367    4.4519 H   0  0  0  0  0  0  0  0  0  0  0  0
   32.6281    2.8306    5.1540 H   0  0  0  0  0  0  0  0  0  0  0  0
   33.9232    1.1108    6.1733 H   0  0  0  0  0  0  0  0  0  0  0  0
   32.7817    1.7932    7.3674 H   0  0  0  0  0  0  0  0  0  0  0  0
   32.3734    0.2005    6.6367 H   0  0  0  0  0  0  0  0  0  0  0  0
   27.3414    3.2598    3.1218 H   0  0  0  0  0  0  0  0  0  0  0  0
   24.7568    1.6509    2.4414 H   0  0  0  0  0  0  0  0  0  0  0  0
  1  2  2  0
  2  3  1  0
  2  4  1  0
  4  5  1  0
  5  6  1  0
  6  7  1  0
  7  8  1  0
  7  9  2  0
  9 10  1  0
 10 11  1  0
 11 12  2  0
 12 13  1  0
 12 14  1  0
 14 15  2  0
 15 16  1  0
 16 17  1  0
 17 18  1  0
 18 19  1  0
 19 20  1  0
 15 21  1  0
 21 22  2  0
 22 23  1  0
 10  4  1  0
 22 11  1  0
  1 24  1  0
  1 25  1  0
  3 26  1  0
  3 27  1  0
  3 28  1  0
  4 29  1  1
  5 30  1  0
  5 31  1  0
  6 32  1  0
  6 33  1  0
  8 34  1  0
  8 35  1  0
  8 36  1  0
  9 37  1  0
 10 38  1  6
 13 39  1  0
 14 40  1  0
 16 41  1  0
 16 42  1  0
 17 43  1  0
 17 44  1  0
 18 45  1  0
 18 46  1  0
 19 47  1  0
 19 48  1  0
 20 49  1  0
 20 50  1  0
 20 51  1  0
 21 52  1  0
 23 53  1  0
M  END
$$$$
