
     RDKit          3D

 53 54  0  0  0  0  0  0  0  0999 V2000
   20.9060    0.4345    4.1971 C   0  0  0  0  0  0  0  0  0  0  0  0
   22.1201    0.7337    4.2844 C   0  0  0  0  0  0  0  0  0  0  0  0
   22.9208    0.3189    2.9913 C   0  0  0  0  0  0  0  0  0  0  0  0
   22.9665    1.3303    5.3250 C   0  0  2  0  0  0  0  0  0  0  0  0
   21.9993    1.6857    6.5132 C   0  0  0  0  0  0  0  0  0  0  0  0
   21.1559    2.8654    6.0513 C   0  0  0  0  0  0  0  0  0  0  0  0
   22.1730    3.9664    6.3706 C   0  0  0  0  0  0  0  0  0  0  0  0
   21.8121    5.1547    7.1896 C   0  0  0  0  0  0  0  0  0  0  0  0
   23.3858    3.7410    5.8759 C   0  0  0  0  0  0  0  0  0  0  0  0
   23.7505    2.5008    5.0534 C   0  0  1  0  0  0  0  0  0  0  0  0
   25.2600    2.3961    5.3176 C   0  0  0  0  0  0  0  0  0  0  0  0
   26.0225    3.5512    5.3363 C   0  0  0  0  0  0  0  0  0  0  0  0
   25.5689    4.8006    4.9059 O   0  0  0  0  0  0  0  0  0  0  0  0
   27.3528    3.5786    5.8127 C   0  0  0  0  0  0  0  0  0  0  0  0
   27.9230    2.4259    6.2665 C   0  0  0  0  0  0  0  0  0  0  0  0
   29.1935    2.2570    6.9511 C   0  0  0  0  0  0  0  0  0  0  0  0
   30.3357    1.7075    6.2164 C   0  0  0  0  0  0  0  0  0  0  0  0
   30.8589    2.5423    5.1287 C   0  0  0  0  0  0  0  0  0  0  0  0
   32.0389    1.8127    4.5102 C   0  0  0  0  0  0  0  0  0  0  0  0
   33.1330    1.5983    5.5190 C   0  0  0  0  0  0  0  0  0  0  0  0
   27.1240    1.2664    6.2234 C   0  0  0  0  0  0  0  0  0  0  0  0
   25.8282    1.2092    5.7727 C   0  0  0  0  0  0  0  0  0  0  0  0
   25.2177   -0.0086    5.7939 O   0  0  0  0  0  0  0  0  0  0  0  0
   20.0073    0.1090    3.8804 H   0  0  0  0  0  0  0  0  0  0  0  0
   20.4802    0.7232    5.3764 H   0  0  0  0  0  0  0  0  0  0  0  0
   22.8770   -0.7677    2.9849 H   0  0  0  0  0  0  0  0  0  0  0  0
   23.9413    0.6593    3.0258 H   0  0  0  0  0  0  0  0  0  0  0  0
   22.4053    0.7425    2.1069 H   0  0  0  0  0  0  0  0  0  0  0  0
   23.4965    0.5079    5.8676 H   0  0  0  0  0  0  0  0  0  0  0  0
   22.6985    2.0126    7.3292 H   0  0  0  0  0  0  0  0  0  0  0  0
   21.4860    0.7816    6.8292 H   0  0  0  0  0  0  0  0  0  0  0  0
   21.0433    2.8762    4.9397 H   0  0  0  0  0  0  0  0  0  0  0  0
   20.2555    2.9029    6.6254 H   0  0  0  0  0  0  0  0  0  0  0  0
   22.5976    5.8826    7.1514 H   0  0  0  0  0  0  0  0  0  0  0  0
   21.8520    4.7588    8.2547 H   0  0  0  0  0  0  0  0  0  0  0  0
   20.8096    5.5223    7.0360 H   0  0  0  0  0  0  0  0  0  0  0  0
   24.1178    4.5128    6.1288 H   0  0  0  0  0  0  0  0  0  0  0  0
   23.6632    2.8411    3.9851 H   0  0  0  0  0  0  0  0  0  0  0  0
   25.3601    4.9342    3.9505 H   0  0  0  0  0  0  0  0  0  0  0  0
   27.9369    4.4708    5.8362 H   0  0  0  0  0  0  0  0  0  0  0  0
   28.9554    1.6754    7.9148 H   0  0  0  0  0  0  0  0  0  0  0  0
   29.4270    3.2786    7.3977 H   0  0  0  0  0  0  0  0  0  0  0  0
   30.0355    0.7306    5.6765 H   0  0  0  0  0  0  0  0  0  0  0  0
   31.1209    1.2945    6.9222 H   0  0  0  0  0  0  0  0  0  0  0  0
   31.2000    3.5348    5.5542 H   0  0  0  0  0  0  0  0  0  0  0  0
   30.1008    2.7444    4.3667 H   0  0  0  0  0  0  0  0  0  0  0  0
   31.6125    0.8344    4.1573 H   0  0  0  0  0  0  0  0  0  0  0  0
   32.4332    2.3567    3.6303 H   0  0  0  0  0  0  0  0  0  0  0  0
   33.8066    0.7888    5.1013 H   0  0  0  0  0  0  0  0  0  0  0  0
   33.7199    2.5591    5.6131 H   0  0  0  0  0  0  0  0  0  0  0  0
   32.8142    1.2641    6.4927 H   0  0  0  0  0  0  0  0  0  0  0  0
   27.5497    0.3121    6.5418 H   0  0  0  0  0  0  0  0  0  0  0  0
   25.3192   -0.6424    4.9753 H   0  0  0  0  0  0  0  0  0  0  0  0
  1  2  2  0
  2  3  1  0
  2  4  1  0
  4  5  1  0
  5  6  1  0
  6  7  1  0
  7  8  1  0
  7  9  2  0
  9 10  1  0
 10 11  1  0
 11 12  2  0
 12 13  1  0
 12 14  1  0
 14 15  2  0
 15 16  1  0
 16 17  1  0
 17 18  1  0
 18 19  1  0
 19 20  1  0
 15 21  1  0
 21 22  2  0
 22 23  1  0
 10  4  1  0
 22 11  1  0
  1 24  1  0
  1 25  1  0
  3 26  1  0
  3 27  1  0
  3 28  1  0
  4 29  1  1
  5 30  1  0
  5 31  1  0
  6 32  1  0
  6 33  1  0
  8 34  1  0
  8 35  1  0
  8 36  1  0
  9 37  1  0
 10 38  1  6
 13 39  1  0
 14 40  1  0
 16 41  1  0
 16 42  1  0
 17 43  1  0
 17 44  1  0
 18 45  1  0
 18 46  1  0
 19 47  1  0
 19 48  1  0
 20 49  1  0
 20 50  1  0
 20 51  1  0
 21 52  1  0
 23 53  1  0
M  END
$$$$
