
     RDKit          3D

 59 61  0  0  0  0  0  0  0  0999 V2000
   21.8388    5.0702    1.6212 C   0  0  0  0  0  0  0  0  0  0  0  0
   22.0808    4.0979    2.6315 O   0  0  0  0  0  0  0  0  0  0  0  0
   23.1830    4.1443    3.4687 C   0  0  0  0  0  0  0  0  0  0  0  0
   24.0426    5.0839    3.3612 O   0  0  0  0  0  0  0  0  0  0  0  0
   23.3885    3.1104    4.5024 C   0  0  1  0  0  0  0  0  0  0  0  0
   24.6258    3.3681    5.2588 N   0  0  0  0  0  0  0  0  0  0  0  0
   25.7044    2.5019    5.2336 C   0  0  0  0  0  0  0  0  0  0  0  0
   25.5576    1.4526    4.4932 O   0  0  0  0  0  0  0  0  0  0  0  0
   26.9722    2.5950    5.9083 C   0  0  0  0  0  0  0  0  0  0  0  0
   28.0126    1.7715    5.5867 N   0  0  0  0  0  0  0  0  0  0  0  0
   29.0597    2.0386    6.3506 N   0  0  0  0  0  0  0  0  0  0  0  0
   30.3491    1.3221    6.2528 C   0  0  0  0  0  0  0  0  0  0  0  0
   31.2335    2.0151    5.2842 C   0  0  0  0  0  0  0  0  0  0  0  0
   32.5526    1.3339    5.1605 C   0  0  0  0  0  0  0  0  0  0  0  0
   32.4050   -0.0208    4.5228 C   0  0  0  0  0  0  0  0  0  0  0  0
   31.8203    0.1485    3.1500 C   0  0  0  0  0  0  0  0  0  0  0  0
   30.4767    0.8075    3.2396 C   0  0  0  0  0  0  0  0  0  0  0  0
   30.6557    2.1661    3.8928 C   0  0  0  0  0  0  0  0  0  0  0  0
   28.7838    3.0312    7.2052 C   0  0  0  0  0  0  0  0  0  0  0  0
   29.5030    3.6721    8.1938 C   0  0  0  0  0  0  0  0  0  0  0  0
   28.9124    4.6806    8.9260 C   0  0  0  0  0  0  0  0  0  0  0  0
   27.6247    5.0157    8.6479 C   0  0  0  0  0  0  0  0  0  0  0  0
   26.9146    4.3755    7.6641 C   0  0  0  0  0  0  0  0  0  0  0  0
   27.4580    3.3757    6.9163 C   0  0  0  0  0  0  0  0  0  0  0  0
   22.2327    2.9261    5.4309 C   0  0  0  0  0  0  0  0  0  0  0  0
   22.6142    1.8280    6.4308 C   0  0  0  0  0  0  0  0  0  0  0  0
   21.0821    2.3329    4.6258 C   0  0  0  0  0  0  0  0  0  0  0  0
   21.8449    4.1312    6.2118 C   0  0  0  0  0  0  0  0  0  0  0  0
   22.5008    5.9525    1.6997 H   0  0  0  0  0  0  0  0  0  0  0  0
   21.9629    4.5477    0.6445 H   0  0  0  0  0  0  0  0  0  0  0  0
   20.7800    5.4365    1.6610 H   0  0  0  0  0  0  0  0  0  0  0  0
   23.5273    2.1425    3.9694 H   0  0  0  0  0  0  0  0  0  0  0  0
   24.6476    4.2371    5.7957 H   0  0  0  0  0  0  0  0  0  0  0  0
   30.1289    0.3011    5.8889 H   0  0  0  0  0  0  0  0  0  0  0  0
   30.7578    1.3286    7.2748 H   0  0  0  0  0  0  0  0  0  0  0  0
   31.4502    3.0841    5.6001 H   0  0  0  0  0  0  0  0  0  0  0  0
   33.2884    1.9676    4.5846 H   0  0  0  0  0  0  0  0  0  0  0  0
   33.0503    1.1548    6.1391 H   0  0  0  0  0  0  0  0  0  0  0  0
   31.6751   -0.6121    5.1068 H   0  0  0  0  0  0  0  0  0  0  0  0
   33.3954   -0.5542    4.4795 H   0  0  0  0  0  0  0  0  0  0  0  0
   32.5100    0.8494    2.6024 H   0  0  0  0  0  0  0  0  0  0  0  0
   31.7777   -0.8377    2.6334 H   0  0  0  0  0  0  0  0  0  0  0  0
   30.1767    1.0367    2.1831 H   0  0  0  0  0  0  0  0  0  0  0  0
   29.7177    0.1789    3.7046 H   0  0  0  0  0  0  0  0  0  0  0  0
   31.4223    2.7060    3.2992 H   0  0  0  0  0  0  0  0  0  0  0  0
   29.7338    2.7714    3.8616 H   0  0  0  0  0  0  0  0  0  0  0  0
   30.5364    3.3809    8.3952 H   0  0  0  0  0  0  0  0  0  0  0  0
   29.4551    5.2097    9.7174 H   0  0  0  0  0  0  0  0  0  0  0  0
   27.1526    5.7928    9.2040 H   0  0  0  0  0  0  0  0  0  0  0  0
   25.9083    4.6629    7.4901 H   0  0  0  0  0  0  0  0  0  0  0  0
   21.8828    1.8222    7.2505 H   0  0  0  0  0  0  0  0  0  0  0  0
   23.6248    1.9722    6.8406 H   0  0  0  0  0  0  0  0  0  0  0  0
   22.6113    0.8780    5.8517 H   0  0  0  0  0  0  0  0  0  0  0  0
   20.4182    1.7193    5.2709 H   0  0  0  0  0  0  0  0  0  0  0  0
   21.5313    1.6153    3.9080 H   0  0  0  0  0  0  0  0  0  0  0  0
   20.5282    3.0826    4.0394 H   0  0  0  0  0  0  0  0  0  0  0  0
   20.7520    4.0228    6.4556 H   0  0  0  0  0  0  0  0  0  0  0  0
   21.9404    5.0956    5.6743 H   0  0  0  0  0  0  0  0  0  0  0  0
   22.4294    4.2092    7.1640 H   0  0  0  0  0  0  0  0  0  0  0  0
  1  2  1  0
  2  3  1  0
  3  4  2  0
  3  5  1  0
  5  6  1  0
  6  7  1  0
  7  8  2  0
  7  9  1  0
  9 10  2  0
 10 11  1  0
 11 12  1  0
 12 13  1  0
 13 14  1  0
 14 15  1  0
 15 16  1  0
 16 17  1  0
 17 18  1  0
 11 19  1  0
 19 20  2  0
 20 21  1  0
 21 22  2  0
 22 23  1  0
 23 24  2  0
  5 25  1  0
 25 26  1  0
 25 27  1  0
 25 28  1  0
 24  9  1  0
 18 13  1  0
 24 19  1  0
  1 29  1  0
  1 30  1  0
  1 31  1  0
  5 32  1  6
  6 33  1  0
 12 34  1  0
 12 35  1  0
 13 36  1  0
 14 37  1  0
 14 38  1  0
 15 39  1  0
 15 40  1  0
 16 41  1  0
 16 42  1  0
 17 43  1  0
 17 44  1  0
 18 45  1  0
 18 46  1  0
 20 47  1  0
 21 48  1  0
 22 49  1  0
 23 50  1  0
 26 51  1  0
 26 52  1  0
 26 53  1  0
 27 54  1  0
 27 55  1  0
 27 56  1  0
 28 57  1  0
 28 58  1  0
 28 59  1  0
M  END
$$$$
