
     RDKit          3D

 59 61  0  0  0  0  0  0  0  0999 V2000
   21.9026   -0.3463    2.9725 C   0  0  0  0  0  0  0  0  0  0  0  0
   22.7315    0.7714    3.2509 O   0  0  0  0  0  0  0  0  0  0  0  0
   22.2317    2.0840    3.2828 C   0  0  0  0  0  0  0  0  0  0  0  0
   20.9969    2.2903    3.0562 O   0  0  0  0  0  0  0  0  0  0  0  0
   23.1621    3.1931    3.5806 C   0  0  1  0  0  0  0  0  0  0  0  0
   24.5264    2.7600    3.8114 N   0  0  0  0  0  0  0  0  0  0  0  0
   25.1304    2.9406    5.0793 C   0  0  0  0  0  0  0  0  0  0  0  0
   24.4596    3.4898    6.0180 O   0  0  0  0  0  0  0  0  0  0  0  0
   26.5026    2.5042    5.3100 C   0  0  0  0  0  0  0  0  0  0  0  0
   27.3670    1.9151    4.4710 N   0  0  0  0  0  0  0  0  0  0  0  0
   28.5185    1.6837    5.0881 N   0  0  0  0  0  0  0  0  0  0  0  0
   29.7140    1.0317    4.4397 C   0  0  0  0  0  0  0  0  0  0  0  0
   30.5670    1.9896    3.8397 C   0  0  0  0  0  0  0  0  0  0  0  0
   30.1602    2.8561    2.7848 C   0  0  0  0  0  0  0  0  0  0  0  0
   29.8561    1.5599    1.8466 C   0  0  0  0  0  0  0  0  0  0  0  0
   30.8043    0.3022    1.6472 C   0  0  0  0  0  0  0  0  0  0  0  0
   31.9152    1.1483    1.4702 C   0  0  0  0  0  0  0  0  0  0  0  0
   31.8613    1.5647    3.0561 C   0  0  0  0  0  0  0  0  0  0  0  0
   28.4694    2.1088    6.3630 C   0  0  0  0  0  0  0  0  0  0  0  0
   29.3905    2.0937    7.3893 C   0  0  0  0  0  0  0  0  0  0  0  0
   29.0486    2.6139    8.6212 C   0  0  0  0  0  0  0  0  0  0  0  0
   27.7826    3.1417    8.7997 C   0  0  0  0  0  0  0  0  0  0  0  0
   26.8605    3.1494    7.7490 C   0  0  0  0  0  0  0  0  0  0  0  0
   27.1907    2.6312    6.5100 C   0  0  0  0  0  0  0  0  0  0  0  0
   23.0991    4.3198    2.5730 C   0  0  0  0  0  0  0  0  0  0  0  0
   24.0853    5.4382    2.9351 C   0  0  0  0  0  0  0  0  0  0  0  0
   21.7389    4.9845    2.5890 C   0  0  0  0  0  0  0  0  0  0  0  0
   23.3967    3.8926    1.1731 C   0  0  0  0  0  0  0  0  0  0  0  0
   21.8520   -0.5684    1.8900 H   0  0  0  0  0  0  0  0  0  0  0  0
   20.8795   -0.1085    3.3832 H   0  0  0  0  0  0  0  0  0  0  0  0
   22.3184   -1.2036    3.5714 H   0  0  0  0  0  0  0  0  0  0  0  0
   22.8119    3.6335    4.5520 H   0  0  0  0  0  0  0  0  0  0  0  0
   25.0461    2.3103    3.0079 H   0  0  0  0  0  0  0  0  0  0  0  0
   29.2984    0.2060    3.8187 H   0  0  0  0  0  0  0  0  0  0  0  0
   30.2137    0.4881    5.2917 H   0  0  0  0  0  0  0  0  0  0  0  0
   31.0534    2.6235    4.6583 H   0  0  0  0  0  0  0  0  0  0  0  0
   30.8475    3.4947    2.2893 H   0  0  0  0  0  0  0  0  0  0  0  0
   29.1624    3.2661    2.8696 H   0  0  0  0  0  0  0  0  0  0  0  0
   29.8053    2.0217    0.8538 H   0  0  0  0  0  0  0  0  0  0  0  0
   28.8604    1.1979    2.1199 H   0  0  0  0  0  0  0  0  0  0  0  0
   30.7381   -0.4330    2.3948 H   0  0  0  0  0  0  0  0  0  0  0  0
   30.4116   -0.0709    0.6578 H   0  0  0  0  0  0  0  0  0  0  0  0
   32.9343    0.7484    1.3804 H   0  0  0  0  0  0  0  0  0  0  0  0
   31.8181    2.0666    0.9249 H   0  0  0  0  0  0  0  0  0  0  0  0
   32.5961    2.3727    3.0783 H   0  0  0  0  0  0  0  0  0  0  0  0
   32.2314    0.6681    3.5311 H   0  0  0  0  0  0  0  0  0  0  0  0
   30.3815    1.6705    7.2181 H   0  0  0  0  0  0  0  0  0  0  0  0
   29.7789    2.6033    9.4394 H   0  0  0  0  0  0  0  0  0  0  0  0
   27.5443    3.5408    9.7732 H   0  0  0  0  0  0  0  0  0  0  0  0
   25.8646    3.5778    7.9310 H   0  0  0  0  0  0  0  0  0  0  0  0
   25.1083    5.1638    2.6117 H   0  0  0  0  0  0  0  0  0  0  0  0
   23.7888    6.3168    2.2933 H   0  0  0  0  0  0  0  0  0  0  0  0
   23.9823    5.6993    3.9931 H   0  0  0  0  0  0  0  0  0  0  0  0
   21.8100    6.0262    2.2035 H   0  0  0  0  0  0  0  0  0  0  0  0
   21.4249    5.0589    3.6609 H   0  0  0  0  0  0  0  0  0  0  0  0
   20.9633    4.3970    2.0443 H   0  0  0  0  0  0  0  0  0  0  0  0
   24.3398    3.3065    1.0893 H   0  0  0  0  0  0  0  0  0  0  0  0
   22.5361    3.4220    0.6554 H   0  0  0  0  0  0  0  0  0  0  0  0
   23.6120    4.8297    0.5893 H   0  0  0  0  0  0  0  0  0  0  0  0
  1  2  1  0
  2  3  1  0
  3  4  2  0
  3  5  1  0
  5  6  1  0
  6  7  1  0
  7  8  2  0
  7  9  1  0
  9 10  2  0
 10 11  1  0
 11 12  1  0
 12 13  1  0
 13 14  1  0
 14 15  1  0
 15 16  1  0
 16 17  1  0
 17 18  1  0
 11 19  1  0
 19 20  2  0
 20 21  1  0
 21 22  2  0
 22 23  1  0
 23 24  2  0
  5 25  1  0
 25 26  1  0
 25 27  1  0
 25 28  1  0
 24  9  1  0
 18 13  1  0
 24 19  1  0
  1 29  1  0
  1 30  1  0
  1 31  1  0
  5 32  1  1
  6 33  1  0
 12 34  1  0
 12 35  1  0
 13 36  1  0
 14 37  1  0
 14 38  1  0
 15 39  1  0
 15 40  1  0
 16 41  1  0
 16 42  1  0
 17 43  1  0
 17 44  1  0
 18 45  1  0
 18 46  1  0
 20 47  1  0
 21 48  1  0
 22 49  1  0
 23 50  1  0
 26 51  1  0
 26 52  1  0
 26 53  1  0
 27 54  1  0
 27 55  1  0
 27 56  1  0
 28 57  1  0
 28 58  1  0
 28 59  1  0
M  END
$$$$
