
     RDKit          3D

 59 61  0  0  0  0  0  0  0  0999 V2000
   20.6943    6.2702    2.7666 C   0  0  0  0  0  0  0  0  0  0  0  0
   21.3615    5.0219    2.7658 O   0  0  0  0  0  0  0  0  0  0  0  0
   22.5258    4.7874    3.4486 C   0  0  0  0  0  0  0  0  0  0  0  0
   23.0320    5.7352    4.1149 O   0  0  0  0  0  0  0  0  0  0  0  0
   23.1817    3.4636    3.4138 C   0  0  1  0  0  0  0  0  0  0  0  0
   24.4040    3.5051    4.2318 N   0  0  0  0  0  0  0  0  0  0  0  0
   25.6359    3.2665    3.6476 C   0  0  0  0  0  0  0  0  0  0  0  0
   25.6105    3.0112    2.3814 O   0  0  0  0  0  0  0  0  0  0  0  0
   26.9503    3.2574    4.2408 C   0  0  0  0  0  0  0  0  0  0  0  0
   28.0387    2.8415    3.5301 N   0  0  0  0  0  0  0  0  0  0  0  0
   29.1165    2.9340    4.2809 N   0  0  0  0  0  0  0  0  0  0  0  0
   30.4351    2.5683    3.8354 C   0  0  0  0  0  0  0  0  0  0  0  0
   30.7113    1.1092    4.1301 C   0  0  0  0  0  0  0  0  0  0  0  0
   32.2091    0.9851    3.5364 C   0  0  0  0  0  0  0  0  0  0  0  0
   32.9957   -0.3780    3.2444 C   0  0  0  0  0  0  0  0  0  0  0  0
   32.6069   -0.8652    4.5308 C   0  0  0  0  0  0  0  0  0  0  0  0
   31.0831   -0.9925    4.0302 C   0  0  0  0  0  0  0  0  0  0  0  0
   30.2702    0.1494    3.2169 C   0  0  0  0  0  0  0  0  0  0  0  0
   28.8260    3.4040    5.5040 C   0  0  0  0  0  0  0  0  0  0  0  0
   29.5768    3.6813    6.6254 C   0  0  0  0  0  0  0  0  0  0  0  0
   28.9709    4.1779    7.7660 C   0  0  0  0  0  0  0  0  0  0  0  0
   27.6048    4.3683    7.6983 C   0  0  0  0  0  0  0  0  0  0  0  0
   26.8646    4.0944    6.5918 C   0  0  0  0  0  0  0  0  0  0  0  0
   27.4426    3.6056    5.4632 C   0  0  0  0  0  0  0  0  0  0  0  0
   22.2619    2.3630    3.8995 C   0  0  0  0  0  0  0  0  0  0  0  0
   21.8811    2.7027    5.3267 C   0  0  0  0  0  0  0  0  0  0  0  0
   22.8867    1.0107    3.7965 C   0  0  0  0  0  0  0  0  0  0  0  0
   20.9894    2.3409    3.0828 C   0  0  0  0  0  0  0  0  0  0  0  0
   21.3689    7.0276    3.2170 H   0  0  0  0  0  0  0  0  0  0  0  0
   19.7921    6.1669    3.3988 H   0  0  0  0  0  0  0  0  0  0  0  0
   20.4054    6.5049    1.7140 H   0  0  0  0  0  0  0  0  0  0  0  0
   23.4244    3.2309    2.3642 H   0  0  0  0  0  0  0  0  0  0  0  0
   24.2957    3.7007    5.2077 H   0  0  0  0  0  0  0  0  0  0  0  0
   30.6132    2.7789    2.7693 H   0  0  0  0  0  0  0  0  0  0  0  0
   31.1913    3.1618    4.3972 H   0  0  0  0  0  0  0  0  0  0  0  0
   30.8450    0.9237    5.1836 H   0  0  0  0  0  0  0  0  0  0  0  0
   32.8313    1.6137    4.1688 H   0  0  0  0  0  0  0  0  0  0  0  0
   32.1202    1.4307    2.5362 H   0  0  0  0  0  0  0  0  0  0  0  0
   34.0220   -0.0046    3.1918 H   0  0  0  0  0  0  0  0  0  0  0  0
   32.6697   -0.7959    2.3112 H   0  0  0  0  0  0  0  0  0  0  0  0
   32.6652   -0.2461    5.3888 H   0  0  0  0  0  0  0  0  0  0  0  0
   32.8531   -1.9106    4.7151 H   0  0  0  0  0  0  0  0  0  0  0  0
   30.5265   -1.0651    4.9640 H   0  0  0  0  0  0  0  0  0  0  0  0
   31.0100   -1.9126    3.4660 H   0  0  0  0  0  0  0  0  0  0  0  0
   30.6423    0.0288    2.2124 H   0  0  0  0  0  0  0  0  0  0  0  0
   29.2497   -0.2513    3.2521 H   0  0  0  0  0  0  0  0  0  0  0  0
   30.6304    3.5120    6.6135 H   0  0  0  0  0  0  0  0  0  0  0  0
   29.5622    4.3960    8.6486 H   0  0  0  0  0  0  0  0  0  0  0  0
   27.1393    4.7603    8.6032 H   0  0  0  0  0  0  0  0  0  0  0  0
   25.8205    4.2719    6.6061 H   0  0  0  0  0  0  0  0  0  0  0  0
   20.8641    2.3062    5.5007 H   0  0  0  0  0  0  0  0  0  0  0  0
   21.8137    3.8117    5.3839 H   0  0  0  0  0  0  0  0  0  0  0  0
   22.6011    2.2809    6.0372 H   0  0  0  0  0  0  0  0  0  0  0  0
   23.1542    0.8169    2.7488 H   0  0  0  0  0  0  0  0  0  0  0  0
   22.1153    0.2720    4.0953 H   0  0  0  0  0  0  0  0  0  0  0  0
   23.7659    0.8985    4.4791 H   0  0  0  0  0  0  0  0  0  0  0  0
   20.5673    1.3233    3.0682 H   0  0  0  0  0  0  0  0  0  0  0  0
   20.2930    3.0739    3.5387 H   0  0  0  0  0  0  0  0  0  0  0  0
   21.1703    2.7271    2.0419 H   0  0  0  0  0  0  0  0  0  0  0  0
  1  2  1  0
  2  3  1  0
  3  4  2  0
  3  5  1  0
  5  6  1  0
  6  7  1  0
  7  8  2  0
  7  9  1  0
  9 10  2  0
 10 11  1  0
 11 12  1  0
 12 13  1  0
 13 14  1  0
 14 15  1  0
 15 16  1  0
 16 17  1  0
 17 18  1  0
 11 19  1  0
 19 20  2  0
 20 21  1  0
 21 22  2  0
 22 23  1  0
 23 24  2  0
  5 25  1  0
 25 26  1  0
 25 27  1  0
 25 28  1  0
 24  9  1  0
 18 13  1  0
 24 19  1  0
  1 29  1  0
  1 30  1  0
  1 31  1  0
  5 32  1  6
  6 33  1  0
 12 34  1  0
 12 35  1  0
 13 36  1  0
 14 37  1  0
 14 38  1  0
 15 39  1  0
 15 40  1  0
 16 41  1  0
 16 42  1  0
 17 43  1  0
 17 44  1  0
 18 45  1  0
 18 46  1  0
 20 47  1  0
 21 48  1  0
 22 49  1  0
 23 50  1  0
 26 51  1  0
 26 52  1  0
 26 53  1  0
 27 54  1  0
 27 55  1  0
 27 56  1  0
 28 57  1  0
 28 58  1  0
 28 59  1  0
M  END
$$$$
