
     RDKit          3D

 43 44  0  0  0  0  0  0  0  0999 V2000
   24.4731    1.0788    6.9773 C   0  0  0  0  0  0  0  0  0  0  0  0
   24.8181    1.5368    5.5755 C   0  0  2  0  0  0  0  0  0  0  0  0
   24.3125    2.8219    5.4173 O   0  0  0  0  0  0  0  0  0  0  0  0
   24.2936    0.5812    4.5364 C   0  0  0  0  0  0  0  0  0  0  0  0
   22.5410    0.3810    4.5642 S   0  0  0  0  0  0  0  0  0  0  0  0
   22.0327   -0.2967    5.7817 O   0  0  0  0  0  0  0  0  0  0  0  0
   22.1952   -0.4884    3.3798 O   0  0  0  0  0  0  0  0  0  0  0  0
   21.7949    1.9388    4.2761 C   0  0  0  0  0  0  0  0  0  0  0  0
   21.5011    2.3508    2.9890 C   0  0  0  0  0  0  0  0  0  0  0  0
   20.9129    3.5695    2.7069 C   0  0  0  0  0  0  0  0  0  0  0  0
   20.6092    4.4073    3.7753 C   0  0  0  0  0  0  0  0  0  0  0  0
   20.0371    5.6016    3.5537 F   0  0  0  0  0  0  0  0  0  0  0  0
   20.8825    4.0390    5.0602 C   0  0  0  0  0  0  0  0  0  0  0  0
   21.4702    2.8127    5.2919 C   0  0  0  0  0  0  0  0  0  0  0  0
   26.2978    1.5044    5.4803 C   0  0  0  0  0  0  0  0  0  0  0  0
   26.8635    0.3686    5.6121 O   0  0  0  0  0  0  0  0  0  0  0  0
   27.0133    2.6986    5.2531 N   0  0  0  0  0  0  0  0  0  0  0  0
   28.4409    2.5931    5.1724 C   0  0  0  0  0  0  0  0  0  0  0  0
   29.0978    2.3662    3.9781 C   0  0  0  0  0  0  0  0  0  0  0  0
   30.4919    2.2710    3.9502 C   0  0  0  0  0  0  0  0  0  0  0  0
   31.2061    2.4080    5.1411 C   0  0  0  0  0  0  0  0  0  0  0  0
   32.6303    2.2994    5.0388 C   0  0  0  0  0  0  0  0  0  0  0  0
   33.7761    2.2262    4.9707 N   0  0  0  0  0  0  0  0  0  0  0  0
   30.5593    2.6362    6.3483 C   0  0  0  0  0  0  0  0  0  0  0  0
   31.3632    2.7751    7.5894 C   0  0  0  0  0  0  0  0  0  0  0  0
   30.4752    2.9965    8.6500 F   0  0  0  0  0  0  0  0  0  0  0  0
   32.2477    3.8224    7.4632 F   0  0  0  0  0  0  0  0  0  0  0  0
   32.0887    1.6113    7.8120 F   0  0  0  0  0  0  0  0  0  0  0  0
   29.1880    2.7249    6.3437 C   0  0  0  0  0  0  0  0  0  0  0  0
   24.8665    0.0537    7.1422 H   0  0  0  0  0  0  0  0  0  0  0  0
   23.4287    1.2003    7.2565 H   0  0  0  0  0  0  0  0  0  0  0  0
   25.0568    1.7383    7.6735 H   0  0  0  0  0  0  0  0  0  0  0  0
   24.3607    3.1540    4.4889 H   0  0  0  0  0  0  0  0  0  0  0  0
   24.7945   -0.3997    4.7319 H   0  0  0  0  0  0  0  0  0  0  0  0
   24.5750    0.9656    3.5417 H   0  0  0  0  0  0  0  0  0  0  0  0
   21.7382    1.7012    2.1803 H   0  0  0  0  0  0  0  0  0  0  0  0
   20.6786    3.9033    1.7111 H   0  0  0  0  0  0  0  0  0  0  0  0
   20.6515    4.6840    5.9181 H   0  0  0  0  0  0  0  0  0  0  0  0
   21.6767    2.5436    6.3151 H   0  0  0  0  0  0  0  0  0  0  0  0
   26.5165    3.6056    5.1509 H   0  0  0  0  0  0  0  0  0  0  0  0
   28.5185    2.2606    3.0484 H   0  0  0  0  0  0  0  0  0  0  0  0
   31.0081    2.0905    2.9979 H   0  0  0  0  0  0  0  0  0  0  0  0
   28.6470    2.8998    7.2498 H   0  0  0  0  0  0  0  0  0  0  0  0
  1  2  1  0
  2  3  1  6
  2  4  1  0
  4  5  1  0
  5  6  2  0
  5  7  2  0
  5  8  1  0
  8  9  2  0
  9 10  1  0
 10 11  2  0
 11 12  1  0
 11 13  1  0
 13 14  2  0
  2 15  1  0
 15 16  2  0
 15 17  1  0
 17 18  1  0
 18 19  2  0
 19 20  1  0
 20 21  2  0
 21 22  1  0
 22 23  3  0
 21 24  1  0
 24 25  1  0
 25 26  1  0
 25 27  1  0
 25 28  1  0
 24 29  2  0
 14  8  1  0
 29 18  1  0
  1 30  1  0
  1 31  1  0
  1 32  1  0
  3 33  1  0
  4 34  1  0
  4 35  1  0
  9 36  1  0
 10 37  1  0
 13 38  1  0
 14 39  1  0
 17 40  1  0
 19 41  1  0
 20 42  1  0
 29 43  1  0
M  END
$$$$
