
     RDKit          3D

 43 44  0  0  0  0  0  0  0  0999 V2000
   24.9599    3.2402    5.5769 C   0  0  0  0  0  0  0  0  0  0  0  0
   25.7686    2.8322    4.3955 C   0  0  2  0  0  0  0  0  0  0  0  0
   25.8361    3.9335    3.5002 O   0  0  0  0  0  0  0  0  0  0  0  0
   25.2067    1.7049    3.5886 C   0  0  0  0  0  0  0  0  0  0  0  0
   23.6415    2.0400    2.8936 S   0  0  0  0  0  0  0  0  0  0  0  0
   23.7260    3.2082    1.9233 O   0  0  0  0  0  0  0  0  0  0  0  0
   23.2042    0.8667    2.0199 O   0  0  0  0  0  0  0  0  0  0  0  0
   22.4220    2.3815    4.0668 C   0  0  0  0  0  0  0  0  0  0  0  0
   21.8063    1.2916    4.6905 C   0  0  0  0  0  0  0  0  0  0  0  0
   20.8073    1.4502    5.6209 C   0  0  0  0  0  0  0  0  0  0  0  0
   20.3954    2.7391    5.9530 C   0  0  0  0  0  0  0  0  0  0  0  0
   19.4206    2.9277    6.8595 F   0  0  0  0  0  0  0  0  0  0  0  0
   20.9875    3.8233    5.3517 C   0  0  0  0  0  0  0  0  0  0  0  0
   21.9792    3.6193    4.4300 C   0  0  0  0  0  0  0  0  0  0  0  0
   27.1762    2.4522    4.7934 C   0  0  0  0  0  0  0  0  0  0  0  0
   27.4002    1.5001    5.5851 O   0  0  0  0  0  0  0  0  0  0  0  0
   28.3018    3.1588    4.2862 N   0  0  0  0  0  0  0  0  0  0  0  0
   29.5881    2.6971    4.7434 C   0  0  0  0  0  0  0  0  0  0  0  0
   30.2295    1.7186    4.0086 C   0  0  0  0  0  0  0  0  0  0  0  0
   31.4598    1.2915    4.4646 C   0  0  0  0  0  0  0  0  0  0  0  0
   32.0467    1.8088    5.6095 C   0  0  0  0  0  0  0  0  0  0  0  0
   33.3398    1.3217    6.0397 C   0  0  0  0  0  0  0  0  0  0  0  0
   34.3936    0.9367    6.3827 N   0  0  0  0  0  0  0  0  0  0  0  0
   31.3818    2.7920    6.3312 C   0  0  0  0  0  0  0  0  0  0  0  0
   32.0326    3.3417    7.5703 C   0  0  0  0  0  0  0  0  0  0  0  0
   33.2391    3.8943    7.1661 F   0  0  0  0  0  0  0  0  0  0  0  0
   32.2853    2.2811    8.4393 F   0  0  0  0  0  0  0  0  0  0  0  0
   31.2179    4.2831    8.1304 F   0  0  0  0  0  0  0  0  0  0  0  0
   30.1497    3.2372    5.8971 C   0  0  0  0  0  0  0  0  0  0  0  0
   24.2161    2.4625    5.7746 H   0  0  0  0  0  0  0  0  0  0  0  0
   25.6669    3.2316    6.4643 H   0  0  0  0  0  0  0  0  0  0  0  0
   24.5594    4.2571    5.4503 H   0  0  0  0  0  0  0  0  0  0  0  0
   26.3770    3.6077    2.7341 H   0  0  0  0  0  0  0  0  0  0  0  0
   25.2427    0.7303    4.1306 H   0  0  0  0  0  0  0  0  0  0  0  0
   25.9470    1.5454    2.7434 H   0  0  0  0  0  0  0  0  0  0  0  0
   22.0997    0.2678    4.4585 H   0  0  0  0  0  0  0  0  0  0  0  0
   20.3291    0.5934    6.1058 H   0  0  0  0  0  0  0  0  0  0  0  0
   20.7068    4.8459    5.5719 H   0  0  0  0  0  0  0  0  0  0  0  0
   22.4638    4.4735    3.9392 H   0  0  0  0  0  0  0  0  0  0  0  0
   28.1856    3.9487    3.6338 H   0  0  0  0  0  0  0  0  0  0  0  0
   29.7834    1.2993    3.1047 H   0  0  0  0  0  0  0  0  0  0  0  0
   31.9864    0.5202    3.9026 H   0  0  0  0  0  0  0  0  0  0  0  0
   29.6401    3.9933    6.4534 H   0  0  0  0  0  0  0  0  0  0  0  0
  1  2  1  0
  2  3  1  6
  2  4  1  0
  4  5  1  0
  5  6  2  0
  5  7  2  0
  5  8  1  0
  8  9  2  0
  9 10  1  0
 10 11  2  0
 11 12  1  0
 11 13  1  0
 13 14  2  0
  2 15  1  0
 15 16  2  0
 15 17  1  0
 17 18  1  0
 18 19  2  0
 19 20  1  0
 20 21  2  0
 21 22  1  0
 22 23  3  0
 21 24  1  0
 24 25  1  0
 25 26  1  0
 25 27  1  0
 25 28  1  0
 24 29  2  0
 14  8  1  0
 29 18  1  0
  1 30  1  0
  1 31  1  0
  1 32  1  0
  3 33  1  0
  4 34  1  0
  4 35  1  0
  9 36  1  0
 10 37  1  0
 13 38  1  0
 14 39  1  0
 17 40  1  0
 19 41  1  0
 20 42  1  0
 29 43  1  0
M  END
$$$$
