
     RDKit          3D

 43 44  0  0  0  0  0  0  0  0999 V2000
   24.9342    3.5076    5.2070 C   0  0  0  0  0  0  0  0  0  0  0  0
   25.6135    3.2037    3.9146 C   0  0  2  0  0  0  0  0  0  0  0  0
   25.3528    4.2965    3.0386 O   0  0  0  0  0  0  0  0  0  0  0  0
   25.0802    2.0069    3.2220 C   0  0  0  0  0  0  0  0  0  0  0  0
   23.3826    2.2016    2.8072 S   0  0  0  0  0  0  0  0  0  0  0  0
   22.8957    1.0599    1.9391 O   0  0  0  0  0  0  0  0  0  0  0  0
   23.2524    3.4362    1.9093 O   0  0  0  0  0  0  0  0  0  0  0  0
   22.3009    2.4435    4.1207 C   0  0  0  0  0  0  0  0  0  0  0  0
   21.8510    1.3284    4.8184 C   0  0  0  0  0  0  0  0  0  0  0  0
   20.9581    1.4441    5.8703 C   0  0  0  0  0  0  0  0  0  0  0  0
   20.4740    2.6828    6.2724 C   0  0  0  0  0  0  0  0  0  0  0  0
   19.6097    2.8501    7.2826 F   0  0  0  0  0  0  0  0  0  0  0  0
   20.9144    3.7771    5.5890 C   0  0  0  0  0  0  0  0  0  0  0  0
   21.8045    3.6590    4.5408 C   0  0  0  0  0  0  0  0  0  0  0  0
   27.0880    3.1143    4.1541 C   0  0  0  0  0  0  0  0  0  0  0  0
   27.9061    3.9172    3.6269 O   0  0  0  0  0  0  0  0  0  0  0  0
   27.5233    2.0687    5.0139 N   0  0  0  0  0  0  0  0  0  0  0  0
   28.9479    1.9971    5.2337 C   0  0  0  0  0  0  0  0  0  0  0  0
   29.7357    1.2190    4.3772 C   0  0  0  0  0  0  0  0  0  0  0  0
   31.1174    1.1480    4.5884 C   0  0  0  0  0  0  0  0  0  0  0  0
   31.6598    1.8648    5.6576 C   0  0  0  0  0  0  0  0  0  0  0  0
   33.0580    1.8527    5.9503 C   0  0  0  0  0  0  0  0  0  0  0  0
   34.2037    1.8456    6.1699 N   0  0  0  0  0  0  0  0  0  0  0  0
   30.8446    2.6273    6.4872 C   0  0  0  0  0  0  0  0  0  0  0  0
   31.4270    3.3895    7.6253 C   0  0  0  0  0  0  0  0  0  0  0  0
   30.4582    4.0702    8.3127 F   0  0  0  0  0  0  0  0  0  0  0  0
   32.0531    2.4770    8.4522 F   0  0  0  0  0  0  0  0  0  0  0  0
   32.4210    4.2520    7.1917 F   0  0  0  0  0  0  0  0  0  0  0  0
   29.4667    2.7018    6.2816 C   0  0  0  0  0  0  0  0  0  0  0  0
   24.2904    2.6678    5.5448 H   0  0  0  0  0  0  0  0  0  0  0  0
   24.4484    4.4834    5.1507 H   0  0  0  0  0  0  0  0  0  0  0  0
   25.7352    3.6233    6.0050 H   0  0  0  0  0  0  0  0  0  0  0  0
   25.6507    3.9631    2.1545 H   0  0  0  0  0  0  0  0  0  0  0  0
   25.2652    1.0620    3.7951 H   0  0  0  0  0  0  0  0  0  0  0  0
   25.6231    1.9067    2.2298 H   0  0  0  0  0  0  0  0  0  0  0  0
   22.1788    0.3347    4.5682 H   0  0  0  0  0  0  0  0  0  0  0  0
   20.5922    0.5928    6.4297 H   0  0  0  0  0  0  0  0  0  0  0  0
   20.5908    4.7796    5.8328 H   0  0  0  0  0  0  0  0  0  0  0  0
   22.1532    4.5400    3.9976 H   0  0  0  0  0  0  0  0  0  0  0  0
   26.8710    1.3903    5.4639 H   0  0  0  0  0  0  0  0  0  0  0  0
   29.2701    0.6702    3.5476 H   0  0  0  0  0  0  0  0  0  0  0  0
   31.7555    0.5616    3.9528 H   0  0  0  0  0  0  0  0  0  0  0  0
   28.8511    3.2948    6.9309 H   0  0  0  0  0  0  0  0  0  0  0  0
  1  2  1  0
  2  3  1  6
  2  4  1  0
  4  5  1  0
  5  6  2  0
  5  7  2  0
  5  8  1  0
  8  9  2  0
  9 10  1  0
 10 11  2  0
 11 12  1  0
 11 13  1  0
 13 14  2  0
  2 15  1  0
 15 16  2  0
 15 17  1  0
 17 18  1  0
 18 19  2  0
 19 20  1  0
 20 21  2  0
 21 22  1  0
 22 23  3  0
 21 24  1  0
 24 25  1  0
 25 26  1  0
 25 27  1  0
 25 28  1  0
 24 29  2  0
 14  8  1  0
 29 18  1  0
  1 30  1  0
  1 31  1  0
  1 32  1  0
  3 33  1  0
  4 34  1  0
  4 35  1  0
  9 36  1  0
 10 37  1  0
 13 38  1  0
 14 39  1  0
 17 40  1  0
 19 41  1  0
 20 42  1  0
 29 43  1  0
M  END
$$$$
