
     RDKit          3D

 43 44  0  0  0  0  0  0  0  0999 V2000
   26.0666    3.2983    2.1772 C   0  0  0  0  0  0  0  0  0  0  0  0
   26.1118    2.2051    3.2012 C   0  0  2  0  0  0  0  0  0  0  0  0
   25.8107    1.0176    2.4983 O   0  0  0  0  0  0  0  0  0  0  0  0
   25.0556    2.3253    4.2612 C   0  0  0  0  0  0  0  0  0  0  0  0
   23.4184    2.2933    3.7005 S   0  0  0  0  0  0  0  0  0  0  0  0
   23.0624    3.3116    2.6933 O   0  0  0  0  0  0  0  0  0  0  0  0
   23.1111    0.9526    3.0432 O   0  0  0  0  0  0  0  0  0  0  0  0
   22.2549    2.4404    5.0159 C   0  0  0  0  0  0  0  0  0  0  0  0
   21.7731    1.3185    5.6582 C   0  0  0  0  0  0  0  0  0  0  0  0
   20.8686    1.5052    6.6748 C   0  0  0  0  0  0  0  0  0  0  0  0
   20.4377    2.7606    7.0629 C   0  0  0  0  0  0  0  0  0  0  0  0
   19.5433    2.9530    8.0675 F   0  0  0  0  0  0  0  0  0  0  0  0
   20.9163    3.8814    6.4243 C   0  0  0  0  0  0  0  0  0  0  0  0
   21.8232    3.6961    5.4048 C   0  0  0  0  0  0  0  0  0  0  0  0
   27.4568    1.9880    3.7934 C   0  0  0  0  0  0  0  0  0  0  0  0
   28.0725    0.8912    3.6045 O   0  0  0  0  0  0  0  0  0  0  0  0
   28.0267    3.0425    4.5733 N   0  0  0  0  0  0  0  0  0  0  0  0
   29.3221    2.8449    5.1490 C   0  0  0  0  0  0  0  0  0  0  0  0
   30.4101    3.2383    4.3595 C   0  0  0  0  0  0  0  0  0  0  0  0
   31.6856    3.0713    4.8637 C   0  0  0  0  0  0  0  0  0  0  0  0
   31.8325    2.5292    6.1120 C   0  0  0  0  0  0  0  0  0  0  0  0
   33.1797    2.3703    6.6047 C   0  0  0  0  0  0  0  0  0  0  0  0
   34.2701    2.2602    6.9990 N   0  0  0  0  0  0  0  0  0  0  0  0
   30.7682    2.1371    6.9008 C   0  0  0  0  0  0  0  0  0  0  0  0
   31.0662    1.5632    8.2364 C   0  0  0  0  0  0  0  0  0  0  0  0
   29.9557    1.2052    8.9431 F   0  0  0  0  0  0  0  0  0  0  0  0
   31.9268    0.4915    8.0363 F   0  0  0  0  0  0  0  0  0  0  0  0
   31.7856    2.5083    8.9669 F   0  0  0  0  0  0  0  0  0  0  0  0
   29.5000    2.3010    6.4044 C   0  0  0  0  0  0  0  0  0  0  0  0
   25.3174    3.1378    1.3946 H   0  0  0  0  0  0  0  0  0  0  0  0
   26.0999    4.3174    2.6079 H   0  0  0  0  0  0  0  0  0  0  0  0
   27.0541    3.2181    1.6299 H   0  0  0  0  0  0  0  0  0  0  0  0
   26.2168    0.2603    2.9992 H   0  0  0  0  0  0  0  0  0  0  0  0
   25.2251    3.2746    4.8148 H   0  0  0  0  0  0  0  0  0  0  0  0
   25.2060    1.5101    4.9981 H   0  0  0  0  0  0  0  0  0  0  0  0
   22.1301    0.3556    5.3304 H   0  0  0  0  0  0  0  0  0  0  0  0
   20.4682    0.6535    7.2019 H   0  0  0  0  0  0  0  0  0  0  0  0
   20.5882    4.8538    6.7184 H   0  0  0  0  0  0  0  0  0  0  0  0
   22.2113    4.5600    4.8908 H   0  0  0  0  0  0  0  0  0  0  0  0
   27.5044    3.9517    4.7239 H   0  0  0  0  0  0  0  0  0  0  0  0
   30.2672    3.6660    3.3720 H   0  0  0  0  0  0  0  0  0  0  0  0
   32.5203    3.3708    4.2631 H   0  0  0  0  0  0  0  0  0  0  0  0
   28.6626    2.0088    6.9881 H   0  0  0  0  0  0  0  0  0  0  0  0
  1  2  1  0
  2  3  1  6
  2  4  1  0
  4  5  1  0
  5  6  2  0
  5  7  2  0
  5  8  1  0
  8  9  2  0
  9 10  1  0
 10 11  2  0
 11 12  1  0
 11 13  1  0
 13 14  2  0
  2 15  1  0
 15 16  2  0
 15 17  1  0
 17 18  1  0
 18 19  2  0
 19 20  1  0
 20 21  2  0
 21 22  1  0
 22 23  3  0
 21 24  1  0
 24 25  1  0
 25 26  1  0
 25 27  1  0
 25 28  1  0
 24 29  2  0
 14  8  1  0
 29 18  1  0
  1 30  1  0
  1 31  1  0
  1 32  1  0
  3 33  1  0
  4 34  1  0
  4 35  1  0
  9 36  1  0
 10 37  1  0
 13 38  1  0
 14 39  1  0
 17 40  1  0
 19 41  1  0
 20 42  1  0
 29 43  1  0
M  END
$$$$
