
     RDKit          3D

 43 44  0  0  0  0  0  0  0  0999 V2000
   26.6043    5.4113    5.9695 C   0  0  0  0  0  0  0  0  0  0  0  0
   26.5310    4.2737    4.9669 C   0  0  2  0  0  0  0  0  0  0  0  0
   26.4151    4.8492    3.6857 O   0  0  0  0  0  0  0  0  0  0  0  0
   25.2712    3.5158    5.2230 C   0  0  0  0  0  0  0  0  0  0  0  0
   25.0402    2.1372    4.1163 S   0  0  0  0  0  0  0  0  0  0  0  0
   26.1582    1.1681    4.3701 O   0  0  0  0  0  0  0  0  0  0  0  0
   24.9977    2.5645    2.6992 O   0  0  0  0  0  0  0  0  0  0  0  0
   23.5249    1.3197    4.5130 C   0  0  0  0  0  0  0  0  0  0  0  0
   23.4770    0.2895    5.4229 C   0  0  0  0  0  0  0  0  0  0  0  0
   22.2478   -0.3072    5.6853 C   0  0  0  0  0  0  0  0  0  0  0  0
   21.0948    0.1362    5.0350 C   0  0  0  0  0  0  0  0  0  0  0  0
   19.9085   -0.4560    5.3028 F   0  0  0  0  0  0  0  0  0  0  0  0
   21.1643    1.1806    4.1171 C   0  0  0  0  0  0  0  0  0  0  0  0
   22.3835    1.7565    3.8710 C   0  0  0  0  0  0  0  0  0  0  0  0
   27.7378    3.4475    4.9565 C   0  0  0  0  0  0  0  0  0  0  0  0
   28.4555    3.3560    3.9163 O   0  0  0  0  0  0  0  0  0  0  0  0
   28.1837    2.7029    6.0890 N   0  0  0  0  0  0  0  0  0  0  0  0
   29.3689    1.9148    6.0185 C   0  0  0  0  0  0  0  0  0  0  0  0
   29.3947    0.6108    5.6396 C   0  0  0  0  0  0  0  0  0  0  0  0
   30.5712   -0.1089    5.5879 C   0  0  0  0  0  0  0  0  0  0  0  0
   31.7599    0.5080    5.9299 C   0  0  0  0  0  0  0  0  0  0  0  0
   32.9534   -0.2848    5.8592 C   0  0  0  0  0  0  0  0  0  0  0  0
   33.9062   -0.9347    5.8065 N   0  0  0  0  0  0  0  0  0  0  0  0
   31.7735    1.8165    6.3155 C   0  0  0  0  0  0  0  0  0  0  0  0
   33.0796    2.4294    6.6722 C   0  0  0  0  0  0  0  0  0  0  0  0
   32.8281    3.7421    7.0232 F   0  0  0  0  0  0  0  0  0  0  0  0
   33.7163    1.7250    7.6620 F   0  0  0  0  0  0  0  0  0  0  0  0
   33.8775    2.4780    5.5266 F   0  0  0  0  0  0  0  0  0  0  0  0
   30.5830    2.5188    6.3602 C   0  0  0  0  0  0  0  0  0  0  0  0
   26.3514    5.0150    6.9560 H   0  0  0  0  0  0  0  0  0  0  0  0
   25.9934    6.2696    5.6465 H   0  0  0  0  0  0  0  0  0  0  0  0
   27.6878    5.6991    6.0249 H   0  0  0  0  0  0  0  0  0  0  0  0
   26.9729    4.3649    3.0100 H   0  0  0  0  0  0  0  0  0  0  0  0
   24.4096    4.2057    5.0124 H   0  0  0  0  0  0  0  0  0  0  0  0
   25.1249    3.2116    6.2784 H   0  0  0  0  0  0  0  0  0  0  0  0
   24.3782   -0.0488    5.9239 H   0  0  0  0  0  0  0  0  0  0  0  0
   22.1807   -1.1322    6.4078 H   0  0  0  0  0  0  0  0  0  0  0  0
   20.2499    1.5067    3.6242 H   0  0  0  0  0  0  0  0  0  0  0  0
   22.4134    2.5709    3.1499 H   0  0  0  0  0  0  0  0  0  0  0  0
   27.5965    2.7705    6.9588 H   0  0  0  0  0  0  0  0  0  0  0  0
   28.4921    0.1113    5.3708 H   0  0  0  0  0  0  0  0  0  0  0  0
   30.5352   -1.1563    5.2759 H   0  0  0  0  0  0  0  0  0  0  0  0
   30.6369    3.5564    6.6718 H   0  0  0  0  0  0  0  0  0  0  0  0
  1  2  1  0
  2  3  1  6
  2  4  1  0
  4  5  1  0
  5  6  2  0
  5  7  2  0
  5  8  1  0
  8  9  2  0
  9 10  1  0
 10 11  2  0
 11 12  1  0
 11 13  1  0
 13 14  2  0
  2 15  1  0
 15 16  2  0
 15 17  1  0
 17 18  1  0
 18 19  2  0
 19 20  1  0
 20 21  2  0
 21 22  1  0
 22 23  3  0
 21 24  1  0
 24 25  1  0
 25 26  1  0
 25 27  1  0
 25 28  1  0
 24 29  2  0
 14  8  1  0
 29 18  1  0
  1 30  1  0
  1 31  1  0
  1 32  1  0
  3 33  1  0
  4 34  1  0
  4 35  1  0
  9 36  1  0
 10 37  1  0
 13 38  1  0
 14 39  1  0
 17 40  1  0
 19 41  1  0
 20 42  1  0
 29 43  1  0
M  END
$$$$
