
     RDKit          3D

 29 30  0  0  0  0  0  0  0  0999 V2000
   31.2670    0.1970    9.5260 C   0  0  0  0  0  0  0  0  0  0  0  0
   30.9390   -0.1440   10.8420 C   0  0  0  0  0  0  0  0  0  0  0  0
   29.8140    0.3880   11.4200 C   0  0  0  0  0  0  0  0  0  0  0  0
   29.5110    0.0510   12.6940 F   0  0  0  0  0  0  0  0  0  0  0  0
   29.0050    1.2770   10.7490 C   0  0  0  0  0  0  0  0  0  0  0  0
   29.3300    1.6240    9.4350 C   0  0  0  0  0  0  0  0  0  0  0  0
   30.4770    1.0910    8.8460 C   0  0  2  0  0  0  0  0  0  0  0  0
   30.8750    1.4750    7.1840 S   0  0  1  0  0  0  0  0  0  0  0  0
   30.1700    2.6510    6.8210 O   0  0  0  0  0  0  0  0  0  0  0  0
   32.3330    1.5700    7.0830 O   0  0  0  0  0  0  0  0  0  0  0  0
   30.3780    0.0610    6.2610 C   0  0  0  0  0  0  0  0  0  0  0  0
   29.8550    0.3450    4.8380 C   0  0  1  0  0  0  0  0  0  0  0  0
   30.8480    1.0400    4.1240 O   0  0  0  0  0  0  0  0  0  0  0  0
   29.5750   -0.9970    4.0990 C   0  0  0  0  0  0  0  0  0  0  0  0
   28.5580    1.1520    4.9310 C   0  0  0  0  0  0  0  0  0  0  0  0
   27.5630    0.6850    5.4790 O   0  0  0  0  0  0  0  0  0  0  0  0
   28.6290    2.3930    4.4220 N   0  0  0  0  0  0  0  0  0  0  0  0
   27.6330    3.3670    4.4260 C   0  0  0  0  0  0  0  0  0  0  0  0
   26.2920    3.0440    4.6660 C   0  0  0  0  0  0  0  0  0  0  0  0
   28.0310    4.6790    4.2020 C   0  0  0  0  0  0  0  0  0  0  0  0
   27.1030    5.6820    4.1930 C   0  0  0  0  0  0  0  0  0  0  0  0
   25.7680    5.3850    4.4250 C   0  0  0  0  0  0  0  0  0  0  0  0
   24.8680    6.4730    4.3900 C   0  0  0  0  0  0  0  0  0  0  0  0
   24.2560    7.3930    4.3150 N   0  0  0  0  0  0  0  0  0  0  0  0
   25.3490    4.0540    4.6440 C   0  0  2  0  0  0  0  0  0  0  0  0
   23.8780    3.6490    4.9490 C   0  0  2  0  0  0  0  0  0  0  0  0
   23.0090    4.4840    4.4040 F   0  0  0  0  0  0  0  0  0  0  0  0
   23.6830    3.6340    6.2720 F   0  0  0  0  0  0  0  0  0  0  0  0
   23.6310    2.4190    4.4610 F   0  0  0  0  0  0  0  0  0  0  0  0
  2  1  1  0
  3  2  1  0
  4  3  1  0
  5  3  1  0
  6  5  1  0
  7  6  1  6
  7  1  1  0
  8  7  1  0
  8  9  1  6
 10  8  1  0
 11  8  1  0
 12 11  1  0
 13 12  1  0
 12 14  1  6
 15 12  1  0
 16 15  1  0
 17 15  1  0
 18 17  1  0
 19 18  1  0
 20 18  1  0
 21 20  1  0
 22 21  1  0
 23 22  1  0
 24 23  1  0
 25 22  1  0
 25 19  1  1
 26 25  1  0
 26 27  1  6
 28 26  1  0
 29 26  1  0
M  END
$$$$
