
     RDKit          3D

 49 52  0  0  0  0  0  0  0  0999 V2000
   31.2894    0.5082    5.3575 C   0  0  0  0  0  0  0  0  0  0  0  0
   30.9716    0.6987    6.8442 C   0  0  2  0  0  0  0  0  0  0  0  0
   30.1673   -0.4857    7.3721 C   0  0  0  0  0  0  0  0  0  0  0  0
   28.7653   -0.5002    6.7559 C   0  0  0  0  0  0  0  0  0  0  0  0
   28.0060    0.8158    6.9823 C   0  0  1  0  0  0  0  0  0  0  0  0
   28.8213    2.0207    6.4770 C   0  0  2  0  0  0  0  0  0  0  0  0
   30.1856    1.9792    7.1581 C   0  0  2  0  0  0  0  0  0  0  0  0
   31.1897    3.0987    6.8772 C   0  0  0  0  0  0  0  0  0  0  0  0
   32.5342    2.5034    7.3360 C   0  0  0  0  0  0  0  0  0  0  0  0
   32.2853    0.9973    7.6077 C   0  0  2  0  0  0  0  0  0  0  0  0
   33.3758    0.1758    7.2977 O   0  0  0  0  0  0  0  0  0  0  0  0
   28.0846    3.3152    6.8060 C   0  0  0  0  0  0  0  0  0  0  0  0
   26.7057    3.3149    6.1532 C   0  0  0  0  0  0  0  0  0  0  0  0
   25.9050    2.1232    6.5742 C   0  0  0  0  0  0  0  0  0  0  0  0
   24.6556    2.2767    7.0287 C   0  0  0  0  0  0  0  0  0  0  0  0
   23.7382    1.1836    7.3389 C   0  0  0  0  0  0  0  0  0  0  0  0
   22.6364    1.3647    7.8127 O   0  0  0  0  0  0  0  0  0  0  0  0
   24.2527   -0.1856    6.9603 C   0  0  0  0  0  0  0  0  0  0  0  0
   25.7549   -0.2848    7.1907 C   0  0  0  0  0  0  0  0  0  0  0  0
   26.5598    0.7699    6.4078 C   0  0  2  0  0  0  0  0  0  0  0  0
   26.5425    0.4278    4.9075 C   0  0  0  0  0  0  0  0  0  0  0  0
   30.3883    0.4917    4.7536 H   0  0  0  0  0  0  0  0  0  0  0  0
   31.7979   -0.4444    5.2155 H   0  0  0  0  0  0  0  0  0  0  0  0
   31.9272    1.3043    4.9819 H   0  0  0  0  0  0  0  0  0  0  0  0
   30.6761   -1.4250    7.1479 H   0  0  0  0  0  0  0  0  0  0  0  0
   30.0836   -0.4063    8.4585 H   0  0  0  0  0  0  0  0  0  0  0  0
   28.8463   -0.7011    5.6887 H   0  0  0  0  0  0  0  0  0  0  0  0
   28.2094   -1.3230    7.2056 H   0  0  0  0  0  0  0  0  0  0  0  0
   27.9001    0.9504    8.0667 H   0  0  0  0  0  0  0  0  0  0  0  0
   28.9523    1.9646    5.3934 H   0  0  0  0  0  0  0  0  0  0  0  0
   30.0038    1.9771    8.2403 H   0  0  0  0  0  0  0  0  0  0  0  0
   31.2056    3.3424    5.8144 H   0  0  0  0  0  0  0  0  0  0  0  0
   30.9483    4.0082    7.4246 H   0  0  0  0  0  0  0  0  0  0  0  0
   33.3030    2.6133    6.5691 H   0  0  0  0  0  0  0  0  0  0  0  0
   32.9035    2.9951    8.2342 H   0  0  0  0  0  0  0  0  0  0  0  0
   32.1208    0.8329    8.6774 H   0  0  0  0  0  0  0  0  0  0  0  0
   33.5876    0.2861    6.3636 H   0  0  0  0  0  0  0  0  0  0  0  0
   27.9736    3.4087    7.8887 H   0  0  0  0  0  0  0  0  0  0  0  0
   28.6560    4.1737    6.4503 H   0  0  0  0  0  0  0  0  0  0  0  0
   26.1684    4.2317    6.4007 H   0  0  0  0  0  0  0  0  0  0  0  0
   26.8293    3.2856    5.0664 H   0  0  0  0  0  0  0  0  0  0  0  0
   24.2415    3.2688    7.1529 H   0  0  0  0  0  0  0  0  0  0  0  0
   23.7207   -0.9438    7.5375 H   0  0  0  0  0  0  0  0  0  0  0  0
   24.0142   -0.3468    5.9057 H   0  0  0  0  0  0  0  0  0  0  0  0
   25.9469   -0.1530    8.2586 H   0  0  0  0  0  0  0  0  0  0  0  0
   26.0870   -1.2856    6.9118 H   0  0  0  0  0  0  0  0  0  0  0  0
   25.5604    0.6348    4.4879 H   0  0  0  0  0  0  0  0  0  0  0  0
   26.7641   -0.6245    4.7509 H   0  0  0  0  0  0  0  0  0  0  0  0
   27.2693    1.0206    4.3600 H   0  0  0  0  0  0  0  0  0  0  0  0
  2  1  1  6
  2  3  1  0
  3  4  1  0
  4  5  1  0
  5  6  1  0
  6  7  1  0
  7  8  1  0
  8  9  1  0
  9 10  1  0
 10 11  1  0
  6 12  1  0
 12 13  1  0
 13 14  1  0
 14 15  2  0
 15 16  1  0
 16 17  2  0
 16 18  1  0
 18 19  1  0
 19 20  1  0
 20 21  1  6
  7  2  1  0
 10  2  1  0
 20  5  1  0
 20 14  1  0
  1 22  1  0
  1 23  1  0
  1 24  1  0
  3 25  1  0
  3 26  1  0
  4 27  1  0
  4 28  1  0
  5 29  1  1
  6 30  1  6
  7 31  1  1
  8 32  1  0
  8 33  1  0
  9 34  1  0
  9 35  1  0
 10 36  1  1
 11 37  1  0
 12 38  1  0
 12 39  1  0
 13 40  1  0
 13 41  1  0
 15 42  1  0
 18 43  1  0
 18 44  1  0
 19 45  1  0
 19 46  1  0
 21 47  1  0
 21 48  1  0
 21 49  1  0
M  END
$$$$
