
     RDKit          3D

 59 61  0  0  0  0  0  0  0  0999 V2000
   30.9415    0.2211    9.1058 C   0  0  0  0  0  0  0  0  0  0  0  0
   31.4077   -0.2810    7.7387 C   0  0  0  0  0  0  0  0  0  0  0  0
   30.6115   -1.5267    7.3444 C   0  0  0  0  0  0  0  0  0  0  0  0
   32.8995   -0.6149    7.7948 C   0  0  0  0  0  0  0  0  0  0  0  0
   31.1719    0.8571    6.7013 C   0  0  1  0  0  0  0  0  0  0  0  0
   31.8400    0.5307    5.3743 C   0  0  0  0  0  0  0  0  0  0  0  0
   31.3620   -0.1759    4.5242 O   0  0  0  0  0  0  0  0  0  0  0  0
   33.0240    1.1317    5.2610 O   0  0  0  0  0  0  0  0  0  0  0  0
   33.7468    0.8842    4.0619 C   0  0  0  0  0  0  0  0  0  0  0  0
   29.7706    1.0851    6.4663 N   0  0  0  0  0  0  0  0  0  0  0  0
   29.1407    2.2347    6.8054 C   0  0  0  0  0  0  0  0  0  0  0  0
   29.6745    3.1450    7.4140 O   0  0  0  0  0  0  0  0  0  0  0  0
   27.7298    2.2539    6.3881 C   0  0  0  0  0  0  0  0  0  0  0  0
   27.1768    1.2500    5.7279 N   0  0  0  0  0  0  0  0  0  0  0  0
   25.9051    1.5593    5.4907 N   0  0  0  0  0  0  0  0  0  0  0  0
   25.5868    2.7784    6.0063 C   0  0  0  0  0  0  0  0  0  0  0  0
   24.4004    3.5092    6.0091 C   0  0  0  0  0  0  0  0  0  0  0  0
   24.4278    4.7397    6.6225 C   0  0  0  0  0  0  0  0  0  0  0  0
   25.5924    5.2443    7.2204 C   0  0  0  0  0  0  0  0  0  0  0  0
   26.7676    4.5331    7.2214 C   0  0  0  0  0  0  0  0  0  0  0  0
   26.7671    3.2808    6.6058 C   0  0  0  0  0  0  0  0  0  0  0  0
   25.0302    0.6214    4.8483 C   0  0  0  0  0  0  0  0  0  0  0  0
   24.1818   -0.1590    5.8646 C   0  0  0  0  0  0  0  0  0  0  0  0
   23.1498   -1.0250    5.1426 C   0  0  0  0  0  0  0  0  0  0  0  0
   22.3011   -1.7988    6.1477 C   0  0  0  0  0  0  0  0  0  0  0  0
   23.1841   -2.6661    7.0393 C   0  0  0  0  0  0  0  0  0  0  0  0
   24.2177   -1.8062    7.7600 C   0  0  0  0  0  0  0  0  0  0  0  0
   25.0651   -1.0350    6.7529 C   0  0  0  0  0  0  0  0  0  0  0  0
   29.9079    0.5542    9.0580 H   0  0  0  0  0  0  0  0  0  0  0  0
   31.5518    1.0583    9.4351 H   0  0  0  0  0  0  0  0  0  0  0  0
   31.0151   -0.5745    9.8438 H   0  0  0  0  0  0  0  0  0  0  0  0
   30.8889   -2.3601    7.9860 H   0  0  0  0  0  0  0  0  0  0  0  0
   29.5443   -1.3519    7.4556 H   0  0  0  0  0  0  0  0  0  0  0  0
   30.8131   -1.8038    6.3125 H   0  0  0  0  0  0  0  0  0  0  0  0
   33.4926    0.2877    7.9223 H   0  0  0  0  0  0  0  0  0  0  0  0
   33.0990   -1.2803    8.6319 H   0  0  0  0  0  0  0  0  0  0  0  0
   33.2212   -1.1134    6.8829 H   0  0  0  0  0  0  0  0  0  0  0  0
   31.5938    1.7893    7.0921 H   0  0  0  0  0  0  0  0  0  0  0  0
   34.6438    1.4950    4.1152 H   0  0  0  0  0  0  0  0  0  0  0  0
   34.0076   -0.1737    3.9884 H   0  0  0  0  0  0  0  0  0  0  0  0
   33.1444    1.1585    3.1939 H   0  0  0  0  0  0  0  0  0  0  0  0
   29.2759    0.4265    5.8827 H   0  0  0  0  0  0  0  0  0  0  0  0
   23.5010    3.1280    5.5498 H   0  0  0  0  0  0  0  0  0  0  0  0
   23.5289    5.3383    6.6474 H   0  0  0  0  0  0  0  0  0  0  0  0
   25.5538    6.2173    7.6873 H   0  0  0  0  0  0  0  0  0  0  0  0
   27.6714    4.9075    7.6739 H   0  0  0  0  0  0  0  0  0  0  0  0
   25.6579   -0.0689    4.2801 H   0  0  0  0  0  0  0  0  0  0  0  0
   24.3796    1.1650    4.1562 H   0  0  0  0  0  0  0  0  0  0  0  0
   23.6546    0.5638    6.4983 H   0  0  0  0  0  0  0  0  0  0  0  0
   22.5067   -0.3981    4.5203 H   0  0  0  0  0  0  0  0  0  0  0  0
   23.6672   -1.7286    4.4864 H   0  0  0  0  0  0  0  0  0  0  0  0
   21.7423   -1.0940    6.7679 H   0  0  0  0  0  0  0  0  0  0  0  0
   21.5789   -2.4225    5.6171 H   0  0  0  0  0  0  0  0  0  0  0  0
   22.5683   -3.1979    7.7671 H   0  0  0  0  0  0  0  0  0  0  0  0
   23.6968   -3.4108    6.4263 H   0  0  0  0  0  0  0  0  0  0  0  0
   24.8609   -2.4355    8.3779 H   0  0  0  0  0  0  0  0  0  0  0  0
   23.7066   -1.1013    8.4201 H   0  0  0  0  0  0  0  0  0  0  0  0
   25.6161   -1.7397    6.1259 H   0  0  0  0  0  0  0  0  0  0  0  0
   25.7955   -0.4165    7.2781 H   0  0  0  0  0  0  0  0  0  0  0  0
  1  2  1  0
  2  3  1  0
  2  4  1  0
  2  5  1  0
  5  6  1  0
  6  7  2  0
  6  8  1  0
  8  9  1  0
  5 10  1  0
 10 11  1  0
 11 12  2  0
 11 13  1  0
 13 14  2  0
 14 15  1  0
 15 16  1  0
 16 17  2  0
 17 18  1  0
 18 19  2  0
 19 20  1  0
 20 21  2  0
 15 22  1  0
 22 23  1  0
 23 24  1  0
 24 25  1  0
 25 26  1  0
 26 27  1  0
 27 28  1  0
 21 13  1  0
 21 16  1  0
 28 23  1  0
  1 29  1  0
  1 30  1  0
  1 31  1  0
  3 32  1  0
  3 33  1  0
  3 34  1  0
  4 35  1  0
  4 36  1  0
  4 37  1  0
  5 38  1  1
  9 39  1  0
  9 40  1  0
  9 41  1  0
 10 42  1  0
 17 43  1  0
 18 44  1  0
 19 45  1  0
 20 46  1  0
 22 47  1  0
 22 48  1  0
 23 49  1  0
 24 50  1  0
 24 51  1  0
 25 52  1  0
 25 53  1  0
 26 54  1  0
 26 55  1  0
 27 56  1  0
 27 57  1  0
 28 58  1  0
 28 59  1  0
M  END
$$$$
