
     RDKit          3D

 53 55  0  0  0  0  0  0  0  0999 V2000
   33.2415    0.8732    3.9693 C   0  0  0  0  0  0  0  0  0  0  0  0
   31.8157    1.0367    4.4663 C   0  0  0  0  0  0  0  0  0  0  0  0
   31.7100    2.2378    5.4067 C   0  0  0  0  0  0  0  0  0  0  0  0
   30.2915    2.3279    5.9361 C   0  0  0  0  0  0  0  0  0  0  0  0
   29.3491    2.4487    4.7960 C   0  0  0  0  0  0  0  0  0  0  0  0
   27.9148    2.4680    5.2008 C   0  0  0  0  0  0  0  0  0  0  0  0
   27.4031    1.2511    5.5381 C   0  0  0  0  0  0  0  0  0  0  0  0
   25.9986    1.0904    5.6876 C   0  0  0  0  0  0  0  0  0  0  0  0
   25.6546   -0.1799    6.0398 O   0  0  0  0  0  0  0  0  0  0  0  0
   25.1352    2.2372    5.4635 C   0  0  0  0  0  0  0  0  0  0  0  0
   25.7458    3.4088    5.1476 C   0  0  0  0  0  0  0  0  0  0  0  0
   27.1422    3.5784    4.9988 C   0  0  0  0  0  0  0  0  0  0  0  0
   25.0246    4.6189    5.0220 O   0  0  0  0  0  0  0  0  0  0  0  0
   23.5435    4.5824    5.2930 C   0  0  0  0  0  0  0  0  0  0  0  0
   23.3027    4.8906    6.6797 C   0  0  0  0  0  0  0  0  0  0  0  0
   23.0676    5.7320    4.4415 C   0  0  0  0  0  0  0  0  0  0  0  0
   23.1442    3.2452    4.8375 C   0  0  2  0  0  0  0  0  0  0  0  0
   21.5691    3.0740    4.8925 C   0  0  0  0  0  0  0  0  0  0  0  0
   21.1697    1.6992    4.2902 C   0  0  0  0  0  0  0  0  0  0  0  0
   21.9227    0.5442    4.5951 C   0  0  0  0  0  0  0  0  0  0  0  0
   21.5767   -0.8881    4.2186 C   0  0  0  0  0  0  0  0  0  0  0  0
   23.1210    0.7861    5.1851 C   0  0  0  0  0  0  0  0  0  0  0  0
   23.6690    2.1113    5.5642 C   0  0  1  0  0  0  0  0  0  0  0  0
   33.1720    0.3951    2.9632 H   0  0  0  0  0  0  0  0  0  0  0  0
   33.7555    0.2343    4.7191 H   0  0  0  0  0  0  0  0  0  0  0  0
   33.7157    1.8639    3.9050 H   0  0  0  0  0  0  0  0  0  0  0  0
   31.5701    0.1463    4.9860 H   0  0  0  0  0  0  0  0  0  0  0  0
   31.1406    1.2761    3.5725 H   0  0  0  0  0  0  0  0  0  0  0  0
   31.9111    3.1493    4.7893 H   0  0  0  0  0  0  0  0  0  0  0  0
   32.4345    2.0917    6.2376 H   0  0  0  0  0  0  0  0  0  0  0  0
   30.0563    1.3841    6.4604 H   0  0  0  0  0  0  0  0  0  0  0  0
   30.1924    3.1491    6.6666 H   0  0  0  0  0  0  0  0  0  0  0  0
   29.5544    3.3835    4.2014 H   0  0  0  0  0  0  0  0  0  0  0  0
   29.4345    1.5658    4.0568 H   0  0  0  0  0  0  0  0  0  0  0  0
   28.1181    0.5080    5.7998 H   0  0  0  0  0  0  0  0  0  0  0  0
   26.0514   -0.9034    5.5019 H   0  0  0  0  0  0  0  0  0  0  0  0
   27.5458    4.4862    4.6397 H   0  0  0  0  0  0  0  0  0  0  0  0
   24.0134    4.4294    7.3994 H   0  0  0  0  0  0  0  0  0  0  0  0
   23.4608    5.9597    6.8358 H   0  0  0  0  0  0  0  0  0  0  0  0
   22.2542    4.6152    7.0038 H   0  0  0  0  0  0  0  0  0  0  0  0
   22.2206    5.5293    3.8426 H   0  0  0  0  0  0  0  0  0  0  0  0
   22.9917    6.6045    5.0959 H   0  0  0  0  0  0  0  0  0  0  0  0
   23.8681    6.0193    3.6889 H   0  0  0  0  0  0  0  0  0  0  0  0
   23.4334    3.0498    3.7539 H   0  0  0  0  0  0  0  0  0  0  0  0
   21.1820    3.1378    5.8463 H   0  0  0  0  0  0  0  0  0  0  0  0
   21.1702    3.8201    4.1931 H   0  0  0  0  0  0  0  0  0  0  0  0
   20.0589    1.5807    4.5484 H   0  0  0  0  0  0  0  0  0  0  0  0
   21.1469    1.8668    3.1594 H   0  0  0  0  0  0  0  0  0  0  0  0
   20.9890   -1.3587    5.0253 H   0  0  0  0  0  0  0  0  0  0  0  0
   22.5263   -1.4911    4.1918 H   0  0  0  0  0  0  0  0  0  0  0  0
   21.1314   -0.8614    3.2515 H   0  0  0  0  0  0  0  0  0  0  0  0
   23.7082   -0.1676    5.3221 H   0  0  0  0  0  0  0  0  0  0  0  0
   23.4746    2.0964    6.6943 H   0  0  0  0  0  0  0  0  0  0  0  0
  1  2  1  0
  2  3  1  0
  3  4  1  0
  4  5  1  0
  5  6  1  0
  6  7  2  0
  7  8  1  0
  8  9  1  0
  8 10  2  0
 10 11  1  0
 11 12  2  0
 11 13  1  0
 13 14  1  0
 14 15  1  0
 14 16  1  0
 14 17  1  0
 17 18  1  0
 18 19  1  0
 19 20  1  0
 20 21  1  0
 20 22  2  0
 22 23  1  0
 12  6  1  0
 23 17  1  0
 23 10  1  0
  1 24  1  0
  1 25  1  0
  1 26  1  0
  2 27  1  0
  2 28  1  0
  3 29  1  0
  3 30  1  0
  4 31  1  0
  4 32  1  0
  5 33  1  0
  5 34  1  0
  7 35  1  0
  9 36  1  0
 12 37  1  0
 15 38  1  0
 15 39  1  0
 15 40  1  0
 16 41  1  0
 16 42  1  0
 16 43  1  0
 17 44  1  6
 18 45  1  0
 18 46  1  0
 19 47  1  0
 19 48  1  0
 21 49  1  0
 21 50  1  0
 21 51  1  0
 22 52  1  0
 23 53  1  1
M  END
$$$$
