
     RDKit          3D

 53 55  0  0  0  0  0  0  0  0999 V2000
   33.1935    0.7710    4.6363 C   0  0  0  0  0  0  0  0  0  0  0  0
   32.0470    1.2632    5.5223 C   0  0  0  0  0  0  0  0  0  0  0  0
   31.0567    1.9181    4.6002 C   0  0  0  0  0  0  0  0  0  0  0  0
   29.8526    2.2741    5.4879 C   0  0  0  0  0  0  0  0  0  0  0  0
   28.7697    2.7132    4.5254 C   0  0  0  0  0  0  0  0  0  0  0  0
   27.4509    2.7757    5.1350 C   0  0  0  0  0  0  0  0  0  0  0  0
   26.9966    1.6023    5.6624 C   0  0  0  0  0  0  0  0  0  0  0  0
   25.6734    1.4518    5.9520 C   0  0  0  0  0  0  0  0  0  0  0  0
   25.2597    0.2259    6.5470 O   0  0  0  0  0  0  0  0  0  0  0  0
   24.8075    2.4854    5.6670 C   0  0  0  0  0  0  0  0  0  0  0  0
   25.2341    3.6935    5.1314 C   0  0  0  0  0  0  0  0  0  0  0  0
   26.6037    3.8471    4.8506 C   0  0  0  0  0  0  0  0  0  0  0  0
   24.3554    4.7409    4.9119 O   0  0  0  0  0  0  0  0  0  0  0  0
   22.9332    4.6246    5.2079 C   0  0  0  0  0  0  0  0  0  0  0  0
   22.4641    5.5774    6.1929 C   0  0  0  0  0  0  0  0  0  0  0  0
   22.3846    5.2558    3.8187 C   0  0  0  0  0  0  0  0  0  0  0  0
   22.5485    3.2403    5.1291 C   0  0  2  0  0  0  0  0  0  0  0  0
   21.0570    2.9812    5.4317 C   0  0  0  0  0  0  0  0  0  0  0  0
   20.6966    1.5353    5.4225 C   0  0  0  0  0  0  0  0  0  0  0  0
   21.7301    0.6343    4.9389 C   0  0  0  0  0  0  0  0  0  0  0  0
   21.4785   -0.6152    4.1300 C   0  0  0  0  0  0  0  0  0  0  0  0
   23.0059    0.9558    5.1801 C   0  0  0  0  0  0  0  0  0  0  0  0
   23.3424    2.2563    5.9392 C   0  0  1  0  0  0  0  0  0  0  0  0
   34.0693    1.3980    4.8143 H   0  0  0  0  0  0  0  0  0  0  0  0
   32.8653    0.8073    3.5428 H   0  0  0  0  0  0  0  0  0  0  0  0
   33.3558   -0.2846    4.9394 H   0  0  0  0  0  0  0  0  0  0  0  0
   32.3833    2.0675    6.2273 H   0  0  0  0  0  0  0  0  0  0  0  0
   31.5352    0.4390    6.0483 H   0  0  0  0  0  0  0  0  0  0  0  0
   31.4194    2.8996    4.2287 H   0  0  0  0  0  0  0  0  0  0  0  0
   30.6805    1.2726    3.8266 H   0  0  0  0  0  0  0  0  0  0  0  0
   30.0662    3.1576    6.1007 H   0  0  0  0  0  0  0  0  0  0  0  0
   29.4924    1.4205    6.0508 H   0  0  0  0  0  0  0  0  0  0  0  0
   28.6730    2.0489    3.6285 H   0  0  0  0  0  0  0  0  0  0  0  0
   29.0209    3.7485    4.2127 H   0  0  0  0  0  0  0  0  0  0  0  0
   27.6180    0.7187    5.8125 H   0  0  0  0  0  0  0  0  0  0  0  0
   25.5732   -0.6077    6.1041 H   0  0  0  0  0  0  0  0  0  0  0  0
   26.9613    4.7621    4.4808 H   0  0  0  0  0  0  0  0  0  0  0  0
   22.9570    6.5790    5.9871 H   0  0  0  0  0  0  0  0  0  0  0  0
   22.6092    5.3538    7.2392 H   0  0  0  0  0  0  0  0  0  0  0  0
   21.3456    5.8799    6.0491 H   0  0  0  0  0  0  0  0  0  0  0  0
   22.8999    4.5344    3.1220 H   0  0  0  0  0  0  0  0  0  0  0  0
   22.8190    6.2234    3.6773 H   0  0  0  0  0  0  0  0  0  0  0  0
   21.3264    5.1050    3.8045 H   0  0  0  0  0  0  0  0  0  0  0  0
   22.6398    2.8867    4.0307 H   0  0  0  0  0  0  0  0  0  0  0  0
   20.8488    3.4431    6.4187 H   0  0  0  0  0  0  0  0  0  0  0  0
   20.3924    3.4912    4.6861 H   0  0  0  0  0  0  0  0  0  0  0  0
   19.7456    1.3544    4.8425 H   0  0  0  0  0  0  0  0  0  0  0  0
   20.5373    1.2182    6.5135 H   0  0  0  0  0  0  0  0  0  0  0  0
   22.2735   -0.6119    3.3299 H   0  0  0  0  0  0  0  0  0  0  0  0
   21.7939   -1.4643    4.7793 H   0  0  0  0  0  0  0  0  0  0  0  0
   20.4676   -0.6325    3.7466 H   0  0  0  0  0  0  0  0  0  0  0  0
   23.7695    0.2858    4.8278 H   0  0  0  0  0  0  0  0  0  0  0  0
   23.1360    2.1729    6.9579 H   0  0  0  0  0  0  0  0  0  0  0  0
  1  2  1  0
  2  3  1  0
  3  4  1  0
  4  5  1  0
  5  6  1  0
  6  7  2  0
  7  8  1  0
  8  9  1  0
  8 10  2  0
 10 11  1  0
 11 12  2  0
 11 13  1  0
 13 14  1  0
 14 15  1  0
 14 16  1  0
 14 17  1  0
 17 18  1  0
 18 19  1  0
 19 20  1  0
 20 21  1  0
 20 22  2  0
 22 23  1  0
 12  6  1  0
 23 17  1  0
 23 10  1  0
  1 24  1  0
  1 25  1  0
  1 26  1  0
  2 27  1  0
  2 28  1  0
  3 29  1  0
  3 30  1  0
  4 31  1  0
  4 32  1  0
  5 33  1  0
  5 34  1  0
  7 35  1  0
  9 36  1  0
 12 37  1  0
 15 38  1  0
 15 39  1  0
 15 40  1  0
 16 41  1  0
 16 42  1  0
 16 43  1  0
 17 44  1  6
 18 45  1  0
 18 46  1  0
 19 47  1  0
 19 48  1  0
 21 49  1  0
 21 50  1  0
 21 51  1  0
 22 52  1  0
 23 53  1  1
M  END
$$$$
