
     RDKit          3D

 45 48  0  0  0  0  0  0  0  0999 V2000
   22.7343    3.8651    6.6726 C   0  0  0  0  0  0  0  0  0  0  0  0
   22.9212    2.9052    5.5747 C   0  0  2  0  0  0  0  0  0  0  0  0
   21.8174    2.9365    4.6676 O   0  0  0  0  0  0  0  0  0  0  0  0
   22.7795    1.4593    6.1501 C   0  0  0  0  0  0  0  0  0  0  0  0
   24.0954    0.8525    5.9687 C   0  0  0  0  0  0  0  0  0  0  0  0
   25.0391    2.2201    5.7576 C   0  0  1  0  0  0  0  0  0  0  0  0
   26.2506    1.6371    5.2276 C   0  0  2  0  0  0  0  0  0  0  0  0
   27.1413    0.7415    5.8888 C   0  0  0  0  0  0  0  0  0  0  0  0
   27.9216    1.2357    6.9949 C   0  0  0  0  0  0  0  0  0  0  0  0
   28.8372    2.2422    6.1722 C   0  0  0  0  0  0  0  0  0  0  0  0
   30.1511    2.0231    6.2900 C   0  0  0  0  0  0  0  0  0  0  0  0
   30.9427    2.9406    5.4737 C   0  0  0  0  0  0  0  0  0  0  0  0
   32.1720    2.9432    5.6915 O   0  0  0  0  0  0  0  0  0  0  0  0
   30.2712    3.7861    4.4700 C   0  0  0  0  0  0  0  0  0  0  0  0
   28.9767    4.4976    5.0102 C   0  0  0  0  0  0  0  0  0  0  0  0
   28.1905    3.1900    5.2760 C   0  0  0  0  0  0  0  0  0  0  0  0
   26.9454    3.0452    4.9458 C   0  0  0  0  0  0  0  0  0  0  0  0
   26.2009    4.2303    4.6198 C   0  0  0  0  0  0  0  0  0  0  0  0
   24.7648    4.1658    4.5494 C   0  0  0  0  0  0  0  0  0  0  0  0
   24.1025    2.8406    4.7501 C   0  0  2  0  0  0  0  0  0  0  0  0
   24.0207    2.2538    3.4118 C   0  0  0  0  0  0  0  0  0  0  0  0
   23.3954    3.6067    7.5411 H   0  0  0  0  0  0  0  0  0  0  0  0
   21.6422    3.7957    7.0032 H   0  0  0  0  0  0  0  0  0  0  0  0
   22.9459    4.9179    6.3010 H   0  0  0  0  0  0  0  0  0  0  0  0
   21.7427    2.0226    4.2842 H   0  0  0  0  0  0  0  0  0  0  0  0
   22.0864    0.8706    5.4853 H   0  0  0  0  0  0  0  0  0  0  0  0
   22.4127    1.4236    7.1534 H   0  0  0  0  0  0  0  0  0  0  0  0
   24.5590    0.6349    7.0134 H   0  0  0  0  0  0  0  0  0  0  0  0
   24.4218    0.0740    5.3652 H   0  0  0  0  0  0  0  0  0  0  0  0
   25.0582    2.7119    6.6893 H   0  0  0  0  0  0  0  0  0  0  0  0
   26.0481    1.2617    4.2245 H   0  0  0  0  0  0  0  0  0  0  0  0
   26.4317   -0.0582    6.4338 H   0  0  0  0  0  0  0  0  0  0  0  0
   27.6677    0.0357    5.2497 H   0  0  0  0  0  0  0  0  0  0  0  0
   27.2616    1.9957    7.6121 H   0  0  0  0  0  0  0  0  0  0  0  0
   28.4753    0.5725    7.5607 H   0  0  0  0  0  0  0  0  0  0  0  0
   30.5918    1.2697    6.9299 H   0  0  0  0  0  0  0  0  0  0  0  0
   30.9842    4.6039    4.1070 H   0  0  0  0  0  0  0  0  0  0  0  0
   29.9267    3.2126    3.5511 H   0  0  0  0  0  0  0  0  0  0  0  0
   28.6483    5.0360    4.1566 H   0  0  0  0  0  0  0  0  0  0  0  0
   29.2139    4.9454    5.9408 H   0  0  0  0  0  0  0  0  0  0  0  0
   26.6396    5.1714    4.5188 H   0  0  0  0  0  0  0  0  0  0  0  0
   24.2399    5.0385    4.3780 H   0  0  0  0  0  0  0  0  0  0  0  0
   24.1624    1.2052    3.2383 H   0  0  0  0  0  0  0  0  0  0  0  0
   24.8606    2.7779    2.7493 H   0  0  0  0  0  0  0  0  0  0  0  0
   23.0980    2.6475    2.9314 H   0  0  0  0  0  0  0  0  0  0  0  0
  1  2  1  0
  2  3  1  6
  2  4  1  0
  4  5  1  0
  5  6  1  0
  6  7  1  0
  7  8  1  0
  8  9  1  0
  9 10  1  0
 10 11  2  0
 11 12  1  0
 12 13  2  0
 12 14  1  0
 14 15  1  0
 15 16  1  0
 16 17  2  0
 17 18  1  0
 18 19  2  0
 19 20  1  0
 20 21  1  6
 20  2  1  0
 20  6  1  0
 17  7  1  0
 16 10  1  0
  1 22  1  0
  1 23  1  0
  1 24  1  0
  3 25  1  0
  4 26  1  0
  4 27  1  0
  5 28  1  0
  5 29  1  0
  6 30  1  1
  7 31  1  6
  8 32  1  0
  8 33  1  0
  9 34  1  0
  9 35  1  0
 11 36  1  0
 14 37  1  0
 14 38  1  0
 15 39  1  0
 15 40  1  0
 18 41  1  0
 19 42  1  0
 21 43  1  0
 21 44  1  0
 21 45  1  0
M  END
$$$$
