
     RDKit          3D

 45 48  0  0  0  0  0  0  0  0999 V2000
   22.7906    4.4552    6.4791 C   0  0  0  0  0  0  0  0  0  0  0  0
   22.9672    3.2185    5.7932 C   0  0  2  0  0  0  0  0  0  0  0  0
   21.7541    3.0848    4.9111 O   0  0  0  0  0  0  0  0  0  0  0  0
   22.8074    1.8820    6.5368 C   0  0  0  0  0  0  0  0  0  0  0  0
   24.0510    1.1386    6.0819 C   0  0  0  0  0  0  0  0  0  0  0  0
   25.0313    2.3382    5.7673 C   0  0  1  0  0  0  0  0  0  0  0  0
   26.2002    1.8182    5.1159 C   0  0  2  0  0  0  0  0  0  0  0  0
   27.1836    0.8519    5.4945 C   0  0  0  0  0  0  0  0  0  0  0  0
   28.1525    1.1291    6.6036 C   0  0  0  0  0  0  0  0  0  0  0  0
   28.9233    2.3100    6.1073 C   0  0  0  0  0  0  0  0  0  0  0  0
   30.1985    2.3714    6.4343 C   0  0  0  0  0  0  0  0  0  0  0  0
   30.9412    3.4516    5.9330 C   0  0  0  0  0  0  0  0  0  0  0  0
   32.1004    3.7013    6.4254 O   0  0  0  0  0  0  0  0  0  0  0  0
   30.3485    4.2635    4.8010 C   0  0  0  0  0  0  0  0  0  0  0  0
   28.9331    4.6002    5.1441 C   0  0  0  0  0  0  0  0  0  0  0  0
   28.1856    3.2965    5.3463 C   0  0  0  0  0  0  0  0  0  0  0  0
   26.9388    3.2053    4.9280 C   0  0  0  0  0  0  0  0  0  0  0  0
   26.1229    4.2956    4.4717 C   0  0  0  0  0  0  0  0  0  0  0  0
   24.7649    4.2299    4.3990 C   0  0  0  0  0  0  0  0  0  0  0  0
   24.0590    2.9629    4.8005 C   0  0  2  0  0  0  0  0  0  0  0  0
   23.7946    2.3113    3.5354 C   0  0  0  0  0  0  0  0  0  0  0  0
   21.9177    4.3070    7.2268 H   0  0  0  0  0  0  0  0  0  0  0  0
   23.6044    4.8667    7.0762 H   0  0  0  0  0  0  0  0  0  0  0  0
   22.2897    5.2589    5.8027 H   0  0  0  0  0  0  0  0  0  0  0  0
   21.7144    2.1058    4.6430 H   0  0  0  0  0  0  0  0  0  0  0  0
   22.9844    2.1989    7.6085 H   0  0  0  0  0  0  0  0  0  0  0  0
   21.8784    1.4032    6.3886 H   0  0  0  0  0  0  0  0  0  0  0  0
   23.8418    0.5404    5.2272 H   0  0  0  0  0  0  0  0  0  0  0  0
   24.5274    0.5877    6.9448 H   0  0  0  0  0  0  0  0  0  0  0  0
   25.1233    2.9472    6.6329 H   0  0  0  0  0  0  0  0  0  0  0  0
   25.9608    1.6131    4.0327 H   0  0  0  0  0  0  0  0  0  0  0  0
   26.5934   -0.1446    5.7293 H   0  0  0  0  0  0  0  0  0  0  0  0
   27.7898    0.5429    4.6201 H   0  0  0  0  0  0  0  0  0  0  0  0
   28.7705    0.2610    6.7955 H   0  0  0  0  0  0  0  0  0  0  0  0
   27.7085    1.4463    7.5501 H   0  0  0  0  0  0  0  0  0  0  0  0
   30.6380    1.5885    7.0315 H   0  0  0  0  0  0  0  0  0  0  0  0
   30.5206    3.7372    3.8721 H   0  0  0  0  0  0  0  0  0  0  0  0
   30.9598    5.2150    4.7481 H   0  0  0  0  0  0  0  0  0  0  0  0
   28.5375    5.2155    4.3473 H   0  0  0  0  0  0  0  0  0  0  0  0
   28.9148    5.1712    6.1380 H   0  0  0  0  0  0  0  0  0  0  0  0
   26.6025    5.2197    4.2312 H   0  0  0  0  0  0  0  0  0  0  0  0
   24.2469    5.1058    4.0619 H   0  0  0  0  0  0  0  0  0  0  0  0
   22.8665    2.7693    3.0640 H   0  0  0  0  0  0  0  0  0  0  0  0
   24.5813    2.4460    2.7532 H   0  0  0  0  0  0  0  0  0  0  0  0
   23.5190    1.2212    3.5611 H   0  0  0  0  0  0  0  0  0  0  0  0
  1  2  1  0
  2  3  1  6
  2  4  1  0
  4  5  1  0
  5  6  1  0
  6  7  1  0
  7  8  1  0
  8  9  1  0
  9 10  1  0
 10 11  2  0
 11 12  1  0
 12 13  2  0
 12 14  1  0
 14 15  1  0
 15 16  1  0
 16 17  2  0
 17 18  1  0
 18 19  2  0
 19 20  1  0
 20 21  1  6
 20  2  1  0
 20  6  1  0
 17  7  1  0
 16 10  1  0
  1 22  1  0
  1 23  1  0
  1 24  1  0
  3 25  1  0
  4 26  1  0
  4 27  1  0
  5 28  1  0
  5 29  1  0
  6 30  1  1
  7 31  1  6
  8 32  1  0
  8 33  1  0
  9 34  1  0
  9 35  1  0
 11 36  1  0
 14 37  1  0
 14 38  1  0
 15 39  1  0
 15 40  1  0
 18 41  1  0
 19 42  1  0
 21 43  1  0
 21 44  1  0
 21 45  1  0
M  END
$$$$
