
     RDKit          3D

 53 54  0  0  0  0  0  0  0  0999 V2000
   22.4765    0.4835    3.6220 C   0  0  0  0  0  0  0  0  0  0  0  0
   22.4816    0.7434    4.9068 C   0  0  0  0  0  0  0  0  0  0  0  0
   21.6613   -0.2135    5.7923 C   0  0  0  0  0  0  0  0  0  0  0  0
   23.1866    1.7901    5.6344 C   0  0  2  0  0  0  0  0  0  0  0  0
   21.9666    2.6839    6.0174 C   0  0  0  0  0  0  0  0  0  0  0  0
   22.3623    3.9354    6.7295 C   0  0  0  0  0  0  0  0  0  0  0  0
   23.2408    4.7075    5.7206 C   0  0  0  0  0  0  0  0  0  0  0  0
   23.1575    6.1944    5.7024 C   0  0  0  0  0  0  0  0  0  0  0  0
   23.9800    4.0311    4.8795 C   0  0  0  0  0  0  0  0  0  0  0  0
   24.1013    2.5423    4.7632 C   0  0  1  0  0  0  0  0  0  0  0  0
   25.5407    2.1905    4.8375 C   0  0  0  0  0  0  0  0  0  0  0  0
   25.9704    1.1691    5.6518 C   0  0  0  0  0  0  0  0  0  0  0  0
   25.1121    0.4003    6.4323 O   0  0  0  0  0  0  0  0  0  0  0  0
   27.3163    0.8132    5.7678 C   0  0  0  0  0  0  0  0  0  0  0  0
   28.3021    1.5014    5.0510 C   0  0  0  0  0  0  0  0  0  0  0  0
   29.7039    1.0403    5.3394 C   0  0  0  0  0  0  0  0  0  0  0  0
   30.3033    1.8628    6.4308 C   0  0  0  0  0  0  0  0  0  0  0  0
   30.7255    3.2381    6.0554 C   0  0  0  0  0  0  0  0  0  0  0  0
   31.9369    3.2708    5.1270 C   0  0  0  0  0  0  0  0  0  0  0  0
   33.1309    2.6866    5.8686 C   0  0  0  0  0  0  0  0  0  0  0  0
   27.8940    2.4991    4.2536 C   0  0  0  0  0  0  0  0  0  0  0  0
   26.5276    2.8635    4.1285 C   0  0  0  0  0  0  0  0  0  0  0  0
   26.2786    3.9109    3.2529 O   0  0  0  0  0  0  0  0  0  0  0  0
   22.9483    0.9666    2.8091 H   0  0  0  0  0  0  0  0  0  0  0  0
   21.8757   -0.4146    3.2989 H   0  0  0  0  0  0  0  0  0  0  0  0
   20.6036   -0.1154    5.5701 H   0  0  0  0  0  0  0  0  0  0  0  0
   21.9915   -0.1466    6.8221 H   0  0  0  0  0  0  0  0  0  0  0  0
   22.0060   -1.2160    5.4150 H   0  0  0  0  0  0  0  0  0  0  0  0
   23.5161    1.5442    6.6423 H   0  0  0  0  0  0  0  0  0  0  0  0
   21.3602    2.0798    6.7264 H   0  0  0  0  0  0  0  0  0  0  0  0
   21.3629    2.8717    5.1173 H   0  0  0  0  0  0  0  0  0  0  0  0
   22.8611    3.8305    7.6584 H   0  0  0  0  0  0  0  0  0  0  0  0
   21.4272    4.5733    6.8255 H   0  0  0  0  0  0  0  0  0  0  0  0
   22.7158    6.6239    6.5785 H   0  0  0  0  0  0  0  0  0  0  0  0
   22.6075    6.4655    4.7700 H   0  0  0  0  0  0  0  0  0  0  0  0
   24.2155    6.5275    5.4718 H   0  0  0  0  0  0  0  0  0  0  0  0
   24.5372    4.6204    4.1719 H   0  0  0  0  0  0  0  0  0  0  0  0
   23.8148    2.3404    3.6891 H   0  0  0  0  0  0  0  0  0  0  0  0
   25.3533   -0.5417    6.7062 H   0  0  0  0  0  0  0  0  0  0  0  0
   27.5777   -0.0111    6.4364 H   0  0  0  0  0  0  0  0  0  0  0  0
   30.2321    1.2151    4.3994 H   0  0  0  0  0  0  0  0  0  0  0  0
   29.7419   -0.0582    5.5264 H   0  0  0  0  0  0  0  0  0  0  0  0
   31.1427    1.2532    6.8714 H   0  0  0  0  0  0  0  0  0  0  0  0
   29.5595    1.9662    7.2448 H   0  0  0  0  0  0  0  0  0  0  0  0
   30.9742    3.7715    6.9873 H   0  0  0  0  0  0  0  0  0  0  0  0
   29.8903    3.8032    5.5628 H   0  0  0  0  0  0  0  0  0  0  0  0
   31.7467    2.5763    4.2262 H   0  0  0  0  0  0  0  0  0  0  0  0
   32.1423    4.2920    4.8264 H   0  0  0  0  0  0  0  0  0  0  0  0
   32.7575    2.2974    6.8790 H   0  0  0  0  0  0  0  0  0  0  0  0
   33.7682    3.5769    6.1950 H   0  0  0  0  0  0  0  0  0  0  0  0
   33.7355    1.9927    5.3151 H   0  0  0  0  0  0  0  0  0  0  0  0
   28.6614    3.0358    3.6783 H   0  0  0  0  0  0  0  0  0  0  0  0
   26.9114    4.7246    3.2546 H   0  0  0  0  0  0  0  0  0  0  0  0
  1  2  2  0
  2  3  1  0
  2  4  1  0
  4  5  1  0
  5  6  1  0
  6  7  1  0
  7  8  1  0
  7  9  2  0
  9 10  1  0
 10 11  1  0
 11 12  2  0
 12 13  1  0
 12 14  1  0
 14 15  2  0
 15 16  1  0
 16 17  1  0
 17 18  1  0
 18 19  1  0
 19 20  1  0
 15 21  1  0
 21 22  2  0
 22 23  1  0
 10  4  1  0
 22 11  1  0
  1 24  1  0
  1 25  1  0
  3 26  1  0
  3 27  1  0
  3 28  1  0
  4 29  1  1
  5 30  1  0
  5 31  1  0
  6 32  1  0
  6 33  1  0
  8 34  1  0
  8 35  1  0
  8 36  1  0
  9 37  1  0
 10 38  1  6
 13 39  1  0
 14 40  1  0
 16 41  1  0
 16 42  1  0
 17 43  1  0
 17 44  1  0
 18 45  1  0
 18 46  1  0
 19 47  1  0
 19 48  1  0
 20 49  1  0
 20 50  1  0
 20 51  1  0
 21 52  1  0
 23 53  1  0
M  END
$$$$
