
     RDKit          3D

 53 54  0  0  0  0  0  0  0  0999 V2000
   22.4587   -0.2733    5.0258 C   0  0  0  0  0  0  0  0  0  0  0  0
   23.0192    0.7429    5.6713 C   0  0  0  0  0  0  0  0  0  0  0  0
   23.7334    0.5609    6.9857 C   0  0  0  0  0  0  0  0  0  0  0  0
   22.9083    2.0953    5.1412 C   0  0  2  0  0  0  0  0  0  0  0  0
   21.8287    2.2083    4.0452 C   0  0  0  0  0  0  0  0  0  0  0  0
   21.4683    3.6557    3.8009 C   0  0  0  0  0  0  0  0  0  0  0  0
   22.3138    4.6094    4.5410 C   0  0  0  0  0  0  0  0  0  0  0  0
   21.8302    5.9581    4.9139 C   0  0  0  0  0  0  0  0  0  0  0  0
   23.5651    4.2534    4.9742 C   0  0  0  0  0  0  0  0  0  0  0  0
   24.0524    2.8466    4.6620 C   0  0  1  0  0  0  0  0  0  0  0  0
   25.4057    2.6150    4.9974 C   0  0  0  0  0  0  0  0  0  0  0  0
   26.0614    1.4549    4.4998 C   0  0  0  0  0  0  0  0  0  0  0  0
   25.3847    0.4959    3.7933 O   0  0  0  0  0  0  0  0  0  0  0  0
   27.4250    1.2064    4.6775 C   0  0  0  0  0  0  0  0  0  0  0  0
   28.1858    2.0756    5.3491 C   0  0  0  0  0  0  0  0  0  0  0  0
   29.6418    2.0595    5.6318 C   0  0  0  0  0  0  0  0  0  0  0  0
   30.4271    2.7551    4.4996 C   0  0  0  0  0  0  0  0  0  0  0  0
   31.7730    3.2044    5.0460 C   0  0  0  0  0  0  0  0  0  0  0  0
   32.6571    2.1728    5.6093 C   0  0  0  0  0  0  0  0  0  0  0  0
   33.1077    1.1844    4.5913 C   0  0  0  0  0  0  0  0  0  0  0  0
   27.5582    3.2157    5.8493 C   0  0  0  0  0  0  0  0  0  0  0  0
   26.2092    3.4819    5.6856 C   0  0  0  0  0  0  0  0  0  0  0  0
   25.7928    4.6706    6.2841 O   0  0  0  0  0  0  0  0  0  0  0  0
   22.4877   -1.3247    5.4069 H   0  0  0  0  0  0  0  0  0  0  0  0
   21.9868   -0.0917    4.0748 H   0  0  0  0  0  0  0  0  0  0  0  0
   22.9713    0.4123    7.7682 H   0  0  0  0  0  0  0  0  0  0  0  0
   24.3227   -0.4015    6.9265 H   0  0  0  0  0  0  0  0  0  0  0  0
   24.3754    1.4198    7.2461 H   0  0  0  0  0  0  0  0  0  0  0  0
   22.3670    2.6517    6.0159 H   0  0  0  0  0  0  0  0  0  0  0  0
   22.2286    1.7768    3.1261 H   0  0  0  0  0  0  0  0  0  0  0  0
   20.9208    1.5599    4.3252 H   0  0  0  0  0  0  0  0  0  0  0  0
   20.3828    3.8171    4.0726 H   0  0  0  0  0  0  0  0  0  0  0  0
   21.5698    3.8659    2.6995 H   0  0  0  0  0  0  0  0  0  0  0  0
   22.1985    6.7334    4.2007 H   0  0  0  0  0  0  0  0  0  0  0  0
   20.7231    6.0341    4.9421 H   0  0  0  0  0  0  0  0  0  0  0  0
   22.1649    6.2020    5.9785 H   0  0  0  0  0  0  0  0  0  0  0  0
   24.0754    5.0022    5.5349 H   0  0  0  0  0  0  0  0  0  0  0  0
   24.0094    2.8607    3.4947 H   0  0  0  0  0  0  0  0  0  0  0  0
   25.0566    0.5540    2.8344 H   0  0  0  0  0  0  0  0  0  0  0  0
   27.8702    0.3345    4.2731 H   0  0  0  0  0  0  0  0  0  0  0  0
   29.9778    0.9810    5.6064 H   0  0  0  0  0  0  0  0  0  0  0  0
   29.9083    2.4770    6.5970 H   0  0  0  0  0  0  0  0  0  0  0  0
   29.8773    3.5930    4.0777 H   0  0  0  0  0  0  0  0  0  0  0  0
   30.5815    2.0202    3.6558 H   0  0  0  0  0  0  0  0  0  0  0  0
   32.2762    3.8349    4.2463 H   0  0  0  0  0  0  0  0  0  0  0  0
   31.4859    3.9802    5.8743 H   0  0  0  0  0  0  0  0  0  0  0  0
   33.5593    2.6535    6.0769 H   0  0  0  0  0  0  0  0  0  0  0  0
   32.2031    1.5994    6.4820 H   0  0  0  0  0  0  0  0  0  0  0  0
   33.9882    1.5871    4.0389 H   0  0  0  0  0  0  0  0  0  0  0  0
   33.5990    0.3306    5.1891 H   0  0  0  0  0  0  0  0  0  0  0  0
   32.2932    0.8031    3.9799 H   0  0  0  0  0  0  0  0  0  0  0  0
   28.2077    3.9379    6.3698 H   0  0  0  0  0  0  0  0  0  0  0  0
   26.3497    5.5163    6.1634 H   0  0  0  0  0  0  0  0  0  0  0  0
  1  2  2  0
  2  3  1  0
  2  4  1  0
  4  5  1  0
  5  6  1  0
  6  7  1  0
  7  8  1  0
  7  9  2  0
  9 10  1  0
 10 11  1  0
 11 12  2  0
 12 13  1  0
 12 14  1  0
 14 15  2  0
 15 16  1  0
 16 17  1  0
 17 18  1  0
 18 19  1  0
 19 20  1  0
 15 21  1  0
 21 22  2  0
 22 23  1  0
 10  4  1  0
 22 11  1  0
  1 24  1  0
  1 25  1  0
  3 26  1  0
  3 27  1  0
  3 28  1  0
  4 29  1  1
  5 30  1  0
  5 31  1  0
  6 32  1  0
  6 33  1  0
  8 34  1  0
  8 35  1  0
  8 36  1  0
  9 37  1  0
 10 38  1  6
 13 39  1  0
 14 40  1  0
 16 41  1  0
 16 42  1  0
 17 43  1  0
 17 44  1  0
 18 45  1  0
 18 46  1  0
 19 47  1  0
 19 48  1  0
 20 49  1  0
 20 50  1  0
 20 51  1  0
 21 52  1  0
 23 53  1  0
M  END
$$$$
