
     RDKit          3D

 53 54  0  0  0  0  0  0  0  0999 V2000
   21.1850    0.5815    4.2501 C   0  0  0  0  0  0  0  0  0  0  0  0
   22.3991    0.8807    4.3374 C   0  0  0  0  0  0  0  0  0  0  0  0
   23.1998    0.4659    3.0443 C   0  0  0  0  0  0  0  0  0  0  0  0
   23.2455    1.4773    5.3780 C   0  0  2  0  0  0  0  0  0  0  0  0
   22.2783    1.8327    6.5662 C   0  0  0  0  0  0  0  0  0  0  0  0
   21.4349    3.0124    6.1043 C   0  0  0  0  0  0  0  0  0  0  0  0
   22.4520    4.1134    6.4236 C   0  0  0  0  0  0  0  0  0  0  0  0
   22.0911    5.3017    7.2426 C   0  0  0  0  0  0  0  0  0  0  0  0
   23.6648    3.8880    5.9289 C   0  0  0  0  0  0  0  0  0  0  0  0
   24.0295    2.6478    5.1064 C   0  0  1  0  0  0  0  0  0  0  0  0
   25.5390    2.5431    5.3706 C   0  0  0  0  0  0  0  0  0  0  0  0
   26.3015    3.6982    5.3893 C   0  0  0  0  0  0  0  0  0  0  0  0
   25.8479    4.9476    4.9589 O   0  0  0  0  0  0  0  0  0  0  0  0
   27.6318    3.7256    5.8657 C   0  0  0  0  0  0  0  0  0  0  0  0
   28.2020    2.5729    6.3195 C   0  0  0  0  0  0  0  0  0  0  0  0
   29.4725    2.4040    7.0041 C   0  0  0  0  0  0  0  0  0  0  0  0
   30.6147    1.8545    6.2694 C   0  0  0  0  0  0  0  0  0  0  0  0
   31.1379    2.6893    5.1817 C   0  0  0  0  0  0  0  0  0  0  0  0
   32.3179    1.9597    4.5632 C   0  0  0  0  0  0  0  0  0  0  0  0
   33.4120    1.7453    5.5720 C   0  0  0  0  0  0  0  0  0  0  0  0
   27.4030    1.4134    6.2764 C   0  0  0  0  0  0  0  0  0  0  0  0
   26.1072    1.3562    5.8257 C   0  0  0  0  0  0  0  0  0  0  0  0
   25.4967    0.1384    5.8469 O   0  0  0  0  0  0  0  0  0  0  0  0
   20.2863    0.2560    3.9334 H   0  0  0  0  0  0  0  0  0  0  0  0
   20.7592    0.8702    5.4294 H   0  0  0  0  0  0  0  0  0  0  0  0
   23.1560   -0.6207    3.0379 H   0  0  0  0  0  0  0  0  0  0  0  0
   24.2203    0.8063    3.0788 H   0  0  0  0  0  0  0  0  0  0  0  0
   22.6843    0.8895    2.1599 H   0  0  0  0  0  0  0  0  0  0  0  0
   23.7755    0.6549    5.9206 H   0  0  0  0  0  0  0  0  0  0  0  0
   22.9775    2.1596    7.3822 H   0  0  0  0  0  0  0  0  0  0  0  0
   21.7650    0.9286    6.8822 H   0  0  0  0  0  0  0  0  0  0  0  0
   21.3223    3.0232    4.9927 H   0  0  0  0  0  0  0  0  0  0  0  0
   20.5345    3.0499    6.6784 H   0  0  0  0  0  0  0  0  0  0  0  0
   22.8766    6.0296    7.2044 H   0  0  0  0  0  0  0  0  0  0  0  0
   22.1310    4.9058    8.3077 H   0  0  0  0  0  0  0  0  0  0  0  0
   21.0886    5.6693    7.0890 H   0  0  0  0  0  0  0  0  0  0  0  0
   24.3968    4.6598    6.1818 H   0  0  0  0  0  0  0  0  0  0  0  0
   23.9422    2.9881    4.0381 H   0  0  0  0  0  0  0  0  0  0  0  0
   25.6391    5.0812    4.0035 H   0  0  0  0  0  0  0  0  0  0  0  0
   28.2159    4.6178    5.8892 H   0  0  0  0  0  0  0  0  0  0  0  0
   29.2344    1.8224    7.9678 H   0  0  0  0  0  0  0  0  0  0  0  0
   29.7060    3.4256    7.4507 H   0  0  0  0  0  0  0  0  0  0  0  0
   30.3145    0.8776    5.7295 H   0  0  0  0  0  0  0  0  0  0  0  0
   31.3999    1.4415    6.9752 H   0  0  0  0  0  0  0  0  0  0  0  0
   31.4790    3.6818    5.6072 H   0  0  0  0  0  0  0  0  0  0  0  0
   30.3798    2.8914    4.4197 H   0  0  0  0  0  0  0  0  0  0  0  0
   31.8915    0.9814    4.2103 H   0  0  0  0  0  0  0  0  0  0  0  0
   32.7122    2.5037    3.6833 H   0  0  0  0  0  0  0  0  0  0  0  0
   34.0856    0.9358    5.1543 H   0  0  0  0  0  0  0  0  0  0  0  0
   33.9989    2.7061    5.6661 H   0  0  0  0  0  0  0  0  0  0  0  0
   33.0932    1.4111    6.5457 H   0  0  0  0  0  0  0  0  0  0  0  0
   27.8287    0.4591    6.5948 H   0  0  0  0  0  0  0  0  0  0  0  0
   25.5982   -0.4954    5.0283 H   0  0  0  0  0  0  0  0  0  0  0  0
  1  2  2  0
  2  3  1  0
  2  4  1  0
  4  5  1  0
  5  6  1  0
  6  7  1  0
  7  8  1  0
  7  9  2  0
  9 10  1  0
 10 11  1  0
 11 12  2  0
 12 13  1  0
 12 14  1  0
 14 15  2  0
 15 16  1  0
 16 17  1  0
 17 18  1  0
 18 19  1  0
 19 20  1  0
 15 21  1  0
 21 22  2  0
 22 23  1  0
 10  4  1  0
 22 11  1  0
  1 24  1  0
  1 25  1  0
  3 26  1  0
  3 27  1  0
  3 28  1  0
  4 29  1  1
  5 30  1  0
  5 31  1  0
  6 32  1  0
  6 33  1  0
  8 34  1  0
  8 35  1  0
  8 36  1  0
  9 37  1  0
 10 38  1  6
 13 39  1  0
 14 40  1  0
 16 41  1  0
 16 42  1  0
 17 43  1  0
 17 44  1  0
 18 45  1  0
 18 46  1  0
 19 47  1  0
 19 48  1  0
 20 49  1  0
 20 50  1  0
 20 51  1  0
 21 52  1  0
 23 53  1  0
M  END
$$$$
