
     RDKit          3D

 53 54  0  0  0  0  0  0  0  0999 V2000
   21.5431   -0.3032    5.1195 C   0  0  0  0  0  0  0  0  0  0  0  0
   22.0213    0.9717    5.0872 C   0  0  0  0  0  0  0  0  0  0  0  0
   21.4185    1.7772    3.9360 C   0  0  0  0  0  0  0  0  0  0  0  0
   23.0338    1.5089    5.9971 C   0  0  2  0  0  0  0  0  0  0  0  0
   22.3864    1.9407    7.2662 C   0  0  0  0  0  0  0  0  0  0  0  0
   21.5337    3.1199    6.8435 C   0  0  0  0  0  0  0  0  0  0  0  0
   22.4734    4.2410    6.5654 C   0  0  0  0  0  0  0  0  0  0  0  0
   22.2177    5.6484    7.0017 C   0  0  0  0  0  0  0  0  0  0  0  0
   23.6325    3.9692    5.8143 C   0  0  0  0  0  0  0  0  0  0  0  0
   23.8787    2.4924    5.3674 C   0  0  1  0  0  0  0  0  0  0  0  0
   25.3398    2.2824    5.2030 C   0  0  0  0  0  0  0  0  0  0  0  0
   25.9285    2.1797    3.9705 C   0  0  0  0  0  0  0  0  0  0  0  0
   25.1251    2.2413    2.8708 O   0  0  0  0  0  0  0  0  0  0  0  0
   27.2599    2.0595    3.8818 C   0  0  0  0  0  0  0  0  0  0  0  0
   28.1360    2.0078    5.0241 C   0  0  0  0  0  0  0  0  0  0  0  0
   29.5428    1.6833    4.8275 C   0  0  0  0  0  0  0  0  0  0  0  0
   30.1968    1.0322    5.9914 C   0  0  0  0  0  0  0  0  0  0  0  0
   30.9918    1.9473    6.9156 C   0  0  0  0  0  0  0  0  0  0  0  0
   32.0660    2.5877    6.0017 C   0  0  0  0  0  0  0  0  0  0  0  0
   33.1436    3.1889    6.8534 C   0  0  0  0  0  0  0  0  0  0  0  0
   27.5960    2.0795    6.2763 C   0  0  0  0  0  0  0  0  0  0  0  0
   26.1950    2.2249    6.2503 C   0  0  0  0  0  0  0  0  0  0  0  0
   25.7097    2.3464    7.6084 O   0  0  0  0  0  0  0  0  0  0  0  0
   20.9601   -0.9449    4.7521 H   0  0  0  0  0  0  0  0  0  0  0  0
   22.2751   -0.9069    5.8184 H   0  0  0  0  0  0  0  0  0  0  0  0
   20.4887    1.2561    3.6661 H   0  0  0  0  0  0  0  0  0  0  0  0
   22.1595    1.4118    3.1186 H   0  0  0  0  0  0  0  0  0  0  0  0
   21.4555    2.7869    3.9919 H   0  0  0  0  0  0  0  0  0  0  0  0
   23.8006    0.6789    6.3458 H   0  0  0  0  0  0  0  0  0  0  0  0
   21.7605    1.0781    7.5916 H   0  0  0  0  0  0  0  0  0  0  0  0
   23.0244    2.2557    8.0849 H   0  0  0  0  0  0  0  0  0  0  0  0
   20.7820    2.9988    6.1152 H   0  0  0  0  0  0  0  0  0  0  0  0
   20.9326    3.4095    7.8064 H   0  0  0  0  0  0  0  0  0  0  0  0
   22.9392    5.9172    7.7914 H   0  0  0  0  0  0  0  0  0  0  0  0
   22.2353    6.3528    6.1668 H   0  0  0  0  0  0  0  0  0  0  0  0
   21.2040    5.7127    7.5216 H   0  0  0  0  0  0  0  0  0  0  0  0
   24.2796    4.7892    5.6377 H   0  0  0  0  0  0  0  0  0  0  0  0
   23.5128    2.6116    4.2819 H   0  0  0  0  0  0  0  0  0  0  0  0
   24.9609    1.3415    2.3832 H   0  0  0  0  0  0  0  0  0  0  0  0
   27.7282    2.0800    2.9138 H   0  0  0  0  0  0  0  0  0  0  0  0
   29.5680    0.9083    3.9795 H   0  0  0  0  0  0  0  0  0  0  0  0
   30.1833    2.5056    4.4077 H   0  0  0  0  0  0  0  0  0  0  0  0
   30.7677    0.1447    5.7989 H   0  0  0  0  0  0  0  0  0  0  0  0
   29.3488    0.6670    6.7073 H   0  0  0  0  0  0  0  0  0  0  0  0
   30.4498    2.7331    7.4019 H   0  0  0  0  0  0  0  0  0  0  0  0
   31.5311    1.3252    7.6428 H   0  0  0  0  0  0  0  0  0  0  0  0
   32.3006    1.9333    5.2099 H   0  0  0  0  0  0  0  0  0  0  0  0
   31.4822    3.5040    5.5724 H   0  0  0  0  0  0  0  0  0  0  0  0
   32.7390    3.8426    7.6065 H   0  0  0  0  0  0  0  0  0  0  0  0
   33.6753    2.3026    7.3378 H   0  0  0  0  0  0  0  0  0  0  0  0
   33.8832    3.6784    6.1530 H   0  0  0  0  0  0  0  0  0  0  0  0
   28.1265    1.9998    7.1403 H   0  0  0  0  0  0  0  0  0  0  0  0
   25.6371    1.3064    7.8967 H   0  0  0  0  0  0  0  0  0  0  0  0
  1  2  2  0
  2  3  1  0
  2  4  1  0
  4  5  1  0
  5  6  1  0
  6  7  1  0
  7  8  1  0
  7  9  2  0
  9 10  1  0
 10 11  1  0
 11 12  2  0
 12 13  1  0
 12 14  1  0
 14 15  2  0
 15 16  1  0
 16 17  1  0
 17 18  1  0
 18 19  1  0
 19 20  1  0
 15 21  1  0
 21 22  2  0
 22 23  1  0
 10  4  1  0
 22 11  1  0
  1 24  1  0
  1 25  1  0
  3 26  1  0
  3 27  1  0
  3 28  1  0
  4 29  1  1
  5 30  1  0
  5 31  1  0
  6 32  1  0
  6 33  1  0
  8 34  1  0
  8 35  1  0
  8 36  1  0
  9 37  1  0
 10 38  1  6
 13 39  1  0
 14 40  1  0
 16 41  1  0
 16 42  1  0
 17 43  1  0
 17 44  1  0
 18 45  1  0
 18 46  1  0
 19 47  1  0
 19 48  1  0
 20 49  1  0
 20 50  1  0
 20 51  1  0
 21 52  1  0
 23 53  1  0
M  END
$$$$
