
     RDKit          3D

 53 54  0  0  0  0  0  0  0  0999 V2000
   22.0144   -0.4879    5.1205 C   0  0  0  0  0  0  0  0  0  0  0  0
   21.9734    0.8543    4.8525 C   0  0  0  0  0  0  0  0  0  0  0  0
   21.2297    1.2108    3.6482 C   0  0  0  0  0  0  0  0  0  0  0  0
   22.6966    1.7490    5.7981 C   0  0  2  0  0  0  0  0  0  0  0  0
   21.7012    2.4726    6.7491 C   0  0  0  0  0  0  0  0  0  0  0  0
   21.0720    3.6093    5.9028 C   0  0  0  0  0  0  0  0  0  0  0  0
   22.2204    4.6328    5.9958 C   0  0  0  0  0  0  0  0  0  0  0  0
   22.0338    6.0314    6.3891 C   0  0  0  0  0  0  0  0  0  0  0  0
   23.4050    4.1307    5.7161 C   0  0  0  0  0  0  0  0  0  0  0  0
   23.6422    2.6759    5.3114 C   0  0  1  0  0  0  0  0  0  0  0  0
   25.1194    2.6074    5.3268 C   0  0  0  0  0  0  0  0  0  0  0  0
   25.7925    2.6891    6.5388 C   0  0  0  0  0  0  0  0  0  0  0  0
   25.1600    2.4348    7.7434 O   0  0  0  0  0  0  0  0  0  0  0  0
   27.1307    3.0351    6.5342 C   0  0  0  0  0  0  0  0  0  0  0  0
   27.8103    3.3045    5.3594 C   0  0  0  0  0  0  0  0  0  0  0  0
   29.1005    3.9310    5.2121 C   0  0  0  0  0  0  0  0  0  0  0  0
   30.3605    3.3073    5.0001 C   0  0  0  0  0  0  0  0  0  0  0  0
   30.9538    2.4227    6.0545 C   0  0  0  0  0  0  0  0  0  0  0  0
   32.3586    2.0345    5.4542 C   0  0  0  0  0  0  0  0  0  0  0  0
   33.1103    1.2968    6.4945 C   0  0  0  0  0  0  0  0  0  0  0  0
   27.0984    3.2001    4.1196 C   0  0  0  0  0  0  0  0  0  0  0  0
   25.7790    2.8556    4.1120 C   0  0  0  0  0  0  0  0  0  0  0  0
   25.0908    2.7403    2.8944 O   0  0  0  0  0  0  0  0  0  0  0  0
   22.5728   -0.8362    6.0309 H   0  0  0  0  0  0  0  0  0  0  0  0
   21.5392   -1.2142    4.4802 H   0  0  0  0  0  0  0  0  0  0  0  0
   21.1873    0.3450    2.9195 H   0  0  0  0  0  0  0  0  0  0  0  0
   20.1695    1.4711    3.8190 H   0  0  0  0  0  0  0  0  0  0  0  0
   21.8012    1.9832    3.0990 H   0  0  0  0  0  0  0  0  0  0  0  0
   23.1525    1.0542    6.5686 H   0  0  0  0  0  0  0  0  0  0  0  0
   22.2158    2.9242    7.5744 H   0  0  0  0  0  0  0  0  0  0  0  0
   20.9030    1.7733    7.0225 H   0  0  0  0  0  0  0  0  0  0  0  0
   20.2863    4.0209    6.5012 H   0  0  0  0  0  0  0  0  0  0  0  0
   20.9713    3.3714    4.8782 H   0  0  0  0  0  0  0  0  0  0  0  0
   22.4435    6.1712    7.4194 H   0  0  0  0  0  0  0  0  0  0  0  0
   22.6979    6.6213    5.7138 H   0  0  0  0  0  0  0  0  0  0  0  0
   21.0002    6.3785    6.2859 H   0  0  0  0  0  0  0  0  0  0  0  0
   24.2156    4.8475    5.7759 H   0  0  0  0  0  0  0  0  0  0  0  0
   23.3580    2.7784    4.1581 H   0  0  0  0  0  0  0  0  0  0  0  0
   25.0752    1.4520    7.9733 H   0  0  0  0  0  0  0  0  0  0  0  0
   27.7051    3.0937    7.4324 H   0  0  0  0  0  0  0  0  0  0  0  0
   28.9673    4.8892    4.5608 H   0  0  0  0  0  0  0  0  0  0  0  0
   29.2174    4.4911    6.2813 H   0  0  0  0  0  0  0  0  0  0  0  0
   30.4079    2.6831    4.0280 H   0  0  0  0  0  0  0  0  0  0  0  0
   31.1361    4.1096    4.7018 H   0  0  0  0  0  0  0  0  0  0  0  0
   30.3608    1.4785    6.1926 H   0  0  0  0  0  0  0  0  0  0  0  0
   31.0769    2.9456    7.0011 H   0  0  0  0  0  0  0  0  0  0  0  0
   32.1828    1.4837    4.5049 H   0  0  0  0  0  0  0  0  0  0  0  0
   32.9071    2.9776    5.2070 H   0  0  0  0  0  0  0  0  0  0  0  0
   34.2022    1.2578    6.2263 H   0  0  0  0  0  0  0  0  0  0  0  0
   33.0607    1.9402    7.4204 H   0  0  0  0  0  0  0  0  0  0  0  0
   32.6524    0.3475    6.6897 H   0  0  0  0  0  0  0  0  0  0  0  0
   27.6204    3.4068    3.1748 H   0  0  0  0  0  0  0  0  0  0  0  0
   25.0358    1.7979    2.4944 H   0  0  0  0  0  0  0  0  0  0  0  0
  1  2  2  0
  2  3  1  0
  2  4  1  0
  4  5  1  0
  5  6  1  0
  6  7  1  0
  7  8  1  0
  7  9  2  0
  9 10  1  0
 10 11  1  0
 11 12  2  0
 12 13  1  0
 12 14  1  0
 14 15  2  0
 15 16  1  0
 16 17  1  0
 17 18  1  0
 18 19  1  0
 19 20  1  0
 15 21  1  0
 21 22  2  0
 22 23  1  0
 10  4  1  0
 22 11  1  0
  1 24  1  0
  1 25  1  0
  3 26  1  0
  3 27  1  0
  3 28  1  0
  4 29  1  1
  5 30  1  0
  5 31  1  0
  6 32  1  0
  6 33  1  0
  8 34  1  0
  8 35  1  0
  8 36  1  0
  9 37  1  0
 10 38  1  6
 13 39  1  0
 14 40  1  0
 16 41  1  0
 16 42  1  0
 17 43  1  0
 17 44  1  0
 18 45  1  0
 18 46  1  0
 19 47  1  0
 19 48  1  0
 20 49  1  0
 20 50  1  0
 20 51  1  0
 21 52  1  0
 23 53  1  0
M  END
$$$$
