
     RDKit          3D

 49 52  0  0  0  0  0  0  0  0999 V2000
   30.0847    1.6615    4.0195 C   0  0  0  0  0  0  0  0  0  0  0  0
   29.7669    1.8520    5.5062 C   0  0  2  0  0  0  0  0  0  0  0  0
   28.9626    0.6676    6.0341 C   0  0  0  0  0  0  0  0  0  0  0  0
   27.5606    0.6531    5.4179 C   0  0  0  0  0  0  0  0  0  0  0  0
   26.8013    1.9691    5.6443 C   0  0  1  0  0  0  0  0  0  0  0  0
   27.6166    3.1740    5.1390 C   0  0  2  0  0  0  0  0  0  0  0  0
   28.9809    3.1325    5.8201 C   0  0  2  0  0  0  0  0  0  0  0  0
   29.9850    4.2520    5.5392 C   0  0  0  0  0  0  0  0  0  0  0  0
   31.3295    3.6567    5.9980 C   0  0  0  0  0  0  0  0  0  0  0  0
   31.0806    2.1506    6.2697 C   0  0  2  0  0  0  0  0  0  0  0  0
   32.1711    1.3291    5.9597 O   0  0  0  0  0  0  0  0  0  0  0  0
   26.8799    4.4685    5.4680 C   0  0  0  0  0  0  0  0  0  0  0  0
   25.5010    4.4682    4.8152 C   0  0  0  0  0  0  0  0  0  0  0  0
   24.7003    3.2765    5.2362 C   0  0  0  0  0  0  0  0  0  0  0  0
   23.4509    3.4300    5.6907 C   0  0  0  0  0  0  0  0  0  0  0  0
   22.5335    2.3369    6.0009 C   0  0  0  0  0  0  0  0  0  0  0  0
   21.4317    2.5180    6.4747 O   0  0  0  0  0  0  0  0  0  0  0  0
   23.0480    0.9677    5.6223 C   0  0  0  0  0  0  0  0  0  0  0  0
   24.5502    0.8685    5.8527 C   0  0  0  0  0  0  0  0  0  0  0  0
   25.3551    1.9232    5.0698 C   0  0  2  0  0  0  0  0  0  0  0  0
   25.3378    1.5811    3.5695 C   0  0  0  0  0  0  0  0  0  0  0  0
   29.1836    1.6450    3.4156 H   0  0  0  0  0  0  0  0  0  0  0  0
   30.5932    0.7089    3.8775 H   0  0  0  0  0  0  0  0  0  0  0  0
   30.7225    2.4576    3.6439 H   0  0  0  0  0  0  0  0  0  0  0  0
   29.4714   -0.2717    5.8099 H   0  0  0  0  0  0  0  0  0  0  0  0
   28.8789    0.7470    7.1205 H   0  0  0  0  0  0  0  0  0  0  0  0
   27.6416    0.4522    4.3507 H   0  0  0  0  0  0  0  0  0  0  0  0
   27.0047   -0.1697    5.8676 H   0  0  0  0  0  0  0  0  0  0  0  0
   26.6954    2.1037    6.7287 H   0  0  0  0  0  0  0  0  0  0  0  0
   27.7476    3.1179    4.0554 H   0  0  0  0  0  0  0  0  0  0  0  0
   28.7991    3.1304    6.9023 H   0  0  0  0  0  0  0  0  0  0  0  0
   30.0009    4.4957    4.4764 H   0  0  0  0  0  0  0  0  0  0  0  0
   29.7436    5.1615    6.0866 H   0  0  0  0  0  0  0  0  0  0  0  0
   32.0983    3.7666    5.2311 H   0  0  0  0  0  0  0  0  0  0  0  0
   31.6988    4.1484    6.8962 H   0  0  0  0  0  0  0  0  0  0  0  0
   30.9161    1.9862    7.3394 H   0  0  0  0  0  0  0  0  0  0  0  0
   32.3829    1.4394    5.0256 H   0  0  0  0  0  0  0  0  0  0  0  0
   26.7689    4.5620    6.5507 H   0  0  0  0  0  0  0  0  0  0  0  0
   27.4513    5.3270    5.1123 H   0  0  0  0  0  0  0  0  0  0  0  0
   24.9637    5.3850    5.0627 H   0  0  0  0  0  0  0  0  0  0  0  0
   25.6246    4.4389    3.7284 H   0  0  0  0  0  0  0  0  0  0  0  0
   23.0368    4.4221    5.8149 H   0  0  0  0  0  0  0  0  0  0  0  0
   22.5160    0.2095    6.1995 H   0  0  0  0  0  0  0  0  0  0  0  0
   22.8095    0.8065    4.5677 H   0  0  0  0  0  0  0  0  0  0  0  0
   24.7422    1.0003    6.9206 H   0  0  0  0  0  0  0  0  0  0  0  0
   24.8823   -0.1323    5.5738 H   0  0  0  0  0  0  0  0  0  0  0  0
   24.3557    1.7881    3.1499 H   0  0  0  0  0  0  0  0  0  0  0  0
   25.5594    0.5288    3.4129 H   0  0  0  0  0  0  0  0  0  0  0  0
   26.0646    2.1739    3.0220 H   0  0  0  0  0  0  0  0  0  0  0  0
  2  1  1  6
  2  3  1  0
  3  4  1  0
  4  5  1  0
  5  6  1  0
  6  7  1  0
  7  8  1  0
  8  9  1  0
  9 10  1  0
 10 11  1  0
  6 12  1  0
 12 13  1  0
 13 14  1  0
 14 15  2  0
 15 16  1  0
 16 17  2  0
 16 18  1  0
 18 19  1  0
 19 20  1  0
 20 21  1  6
  7  2  1  0
 10  2  1  0
 20  5  1  0
 20 14  1  0
  1 22  1  0
  1 23  1  0
  1 24  1  0
  3 25  1  0
  3 26  1  0
  4 27  1  0
  4 28  1  0
  5 29  1  1
  6 30  1  6
  7 31  1  1
  8 32  1  0
  8 33  1  0
  9 34  1  0
  9 35  1  0
 10 36  1  1
 11 37  1  0
 12 38  1  0
 12 39  1  0
 13 40  1  0
 13 41  1  0
 15 42  1  0
 18 43  1  0
 18 44  1  0
 19 45  1  0
 19 46  1  0
 21 47  1  0
 21 48  1  0
 21 49  1  0
M  END
$$$$
