2am9_Testosterone_0_replicate1
     RDKit          3D

 49 52  0  0  0  0  0  0  0  0999 V2000
   28.4280   -0.1480    5.8270 C   0  0  0  0  0  0  0  0  0  0  0  0
   28.1210    0.1830    4.3810 C   0  0  2  0  0  0  0  0  0  0  0  0
   28.8630    1.4350    4.0140 C   0  0  0  0  0  0  0  0  0  0  0  0
   28.2220    2.5940    4.6800 C   0  0  0  0  0  0  0  0  0  0  0  0
   26.7310    2.6870    4.2700 C   0  0  1  0  0  0  0  0  0  0  0  0
   26.0770    1.3840    4.7470 C   0  0  1  0  0  0  0  0  0  0  0  0
   24.5790    1.4980    4.3700 C   0  0  0  0  0  0  0  0  0  0  0  0
   23.9870    2.6340    5.1390 C   0  0  0  0  0  0  0  0  0  0  0  0
   24.6570    3.9200    4.8970 C   0  0  0  0  0  0  0  0  0  0  0  0
   23.9530    5.0060    4.6910 C   0  0  0  0  0  0  0  0  0  0  0  0
   24.6290    6.2610    4.4830 C   0  0  0  0  0  0  0  0  0  0  0  0
   23.9580    7.2890    4.0640 O   0  0  0  0  0  0  0  0  0  0  0  0
   26.1000    6.3610    4.7630 C   0  0  0  0  0  0  0  0  0  0  0  0
   26.7120    5.0570    4.2260 C   0  0  0  0  0  0  0  0  0  0  0  0
   26.1230    3.8530    5.0060 C   0  0  2  0  0  0  0  0  0  0  0  0
   26.6430    4.0540    6.3900 C   0  0  0  0  0  0  0  0  0  0  0  0
   26.6810    0.2230    4.0230 C   0  0  2  0  0  0  0  0  0  0  0  0
   26.3320   -1.1280    4.6530 C   0  0  0  0  0  0  0  0  0  0  0  0
   27.3330   -2.0500    4.0310 C   0  0  0  0  0  0  0  0  0  0  0  0
   28.4400   -1.0430    3.5040 C   0  0  2  0  0  0  0  0  0  0  0  0
   29.6680   -1.5280    4.0140 O   0  0  0  0  0  0  0  0  0  0  0  0
   27.8291    0.4977    6.4861 H   0  0  0  0  0  0  0  0  0  0  0  0
   28.1804   -1.2018    6.0225 H   0  0  0  0  0  0  0  0  0  0  0  0
   29.4974    0.0197    6.0225 H   0  0  0  0  0  0  0  0  0  0  0  0
   29.9090    1.3530    4.3443 H   0  0  0  0  0  0  0  0  0  0  0  0
   28.8365    1.5742    2.9232 H   0  0  0  0  0  0  0  0  0  0  0  0
   28.2922    2.4712    5.7709 H   0  0  0  0  0  0  0  0  0  0  0  0
   28.7377    3.5158    4.3728 H   0  0  0  0  0  0  0  0  0  0  0  0
   26.5960    2.8251    3.1871 H   0  0  0  0  0  0  0  0  0  0  0  0
   26.2194    1.2314    5.8270 H   0  0  0  0  0  0  0  0  0  0  0  0
   24.4804    1.6878    3.2910 H   0  0  0  0  0  0  0  0  0  0  0  0
   24.0547    0.5619    4.6127 H   0  0  0  0  0  0  0  0  0  0  0  0
   22.9293    2.7336    4.8536 H   0  0  0  0  0  0  0  0  0  0  0  0
   24.1116    2.4009    6.2068 H   0  0  0  0  0  0  0  0  0  0  0  0
   22.8541    4.9596    4.6770 H   0  0  0  0  0  0  0  0  0  0  0  0
   26.5315    7.2299    4.2444 H   0  0  0  0  0  0  0  0  0  0  0  0
   26.3022    6.4942    5.8360 H   0  0  0  0  0  0  0  0  0  0  0  0
   26.4750    4.9532    3.1569 H   0  0  0  0  0  0  0  0  0  0  0  0
   27.8038    5.0817    4.3575 H   0  0  0  0  0  0  0  0  0  0  0  0
   25.8735    3.7566    7.1176 H   0  0  0  0  0  0  0  0  0  0  0  0
   27.5432    3.4391    6.5364 H   0  0  0  0  0  0  0  0  0  0  0  0
   26.8956    5.1145    6.5364 H   0  0  0  0  0  0  0  0  0  0  0  0
   26.3692    0.3457    2.9753 H   0  0  0  0  0  0  0  0  0  0  0  0
   26.4471   -1.0972    5.7465 H   0  0  0  0  0  0  0  0  0  0  0  0
   25.2899   -1.4342    4.4793 H   0  0  0  0  0  0  0  0  0  0  0  0
   27.7492   -2.7459    4.7743 H   0  0  0  0  0  0  0  0  0  0  0  0
   26.9107   -2.6913    3.2434 H   0  0  0  0  0  0  0  0  0  0  0  0
   28.4721   -0.8863    2.4157 H   0  0  0  0  0  0  0  0  0  0  0  0
   29.6840   -2.4680    4.2050 H   0  0  0  0  0  0  0  0  0  0  0  0
  2  1  1  1
  2  3  1  0
  3  4  1  0
  4  5  1  0
  5  6  1  0
  6  7  1  0
  7  8  1  0
  8  9  1  0
  9 10  2  0
 10 11  1  0
 11 12  2  0
 11 13  1  0
 13 14  1  0
 14 15  1  0
 15 16  1  1
  6 17  1  0
 17 18  1  0
 18 19  1  0
 19 20  1  0
 20 21  1  0
 17  2  1  0
 20  2  1  0
 15  5  1  0
 15  9  1  0
  1 22  1  0
  1 23  1  0
  1 24  1  0
  3 25  1  0
  3 26  1  0
  4 27  1  0
  4 28  1  0
  5 29  1  6
  6 30  1  1
  7 31  1  0
  7 32  1  0
  8 33  1  0
  8 34  1  0
 10 35  1  0
 13 36  1  0
 13 37  1  0
 14 38  1  0
 14 39  1  0
 16 40  1  0
 16 41  1  0
 16 42  1  0
 17 43  1  6
 18 44  1  0
 18 45  1  0
 19 46  1  0
 19 47  1  0
 20 48  1  6
 21 49  1  0
M  END
>  <meeko>  (1) 
{"is_sidechain": [false], "free_energy": -10.817, "intermolecular_energy": -11.133, "internal_energy": 0.0}

$$$$
