
     RDKit          3D

 58 62  0  0  0  0  0  0  0  0999 V2000
   22.0750    0.8373    4.4248 C   0  0  0  0  0  0  0  0  0  0  0  0
   22.4075    0.8306    5.9159 C   0  0  2  0  0  0  0  0  0  0  0  0
   21.8055    2.0680    6.5806 C   0  0  0  0  0  0  0  0  0  0  0  0
   22.3899    3.3239    5.9357 C   0  0  2  0  0  0  0  0  0  0  0  0
   22.0564    3.3355    4.4447 C   0  0  0  0  0  0  0  0  0  0  0  0
   22.6555    2.0957    3.7820 C   0  0  1  0  0  0  0  0  0  0  0  0
   24.1719    2.1060    3.9607 C   0  0  0  0  0  0  0  0  0  0  0  0
   24.5102    2.0972    5.4559 C   0  0  2  0  0  0  0  0  0  0  0  0
   23.9236    0.8365    6.0997 C   0  0  0  0  0  0  0  0  0  0  0  0
   23.9076    3.3359    6.1189 C   0  0  0  0  0  0  0  0  0  0  0  0
   25.9545    2.1361    5.6417 N   0  0  0  0  0  0  0  0  0  0  0  0
   26.8343    1.2062    5.2169 C   0  0  0  0  0  0  0  0  0  0  0  0
   26.5424    0.1692    4.6453 O   0  0  0  0  0  0  0  0  0  0  0  0
   28.2345    1.5919    5.4914 C   0  0  0  0  0  0  0  0  0  0  0  0
   28.5430    2.7379    6.0696 N   0  0  0  0  0  0  0  0  0  0  0  0
   29.8724    2.8365    6.1260 N   0  0  0  0  0  0  0  0  0  0  0  0
   30.4695    1.7486    5.5667 C   0  0  0  0  0  0  0  0  0  0  0  0
   31.8086    1.4082    5.3888 C   0  0  0  0  0  0  0  0  0  0  0  0
   32.0698    0.2018    4.7825 C   0  0  0  0  0  0  0  0  0  0  0  0
   31.0416   -0.6533    4.3589 C   0  0  0  0  0  0  0  0  0  0  0  0
   29.7180   -0.3278    4.5302 C   0  0  0  0  0  0  0  0  0  0  0  0
   29.4247    0.8914    5.1423 C   0  0  0  0  0  0  0  0  0  0  0  0
   30.4753    4.0605    6.5703 C   0  0  0  0  0  0  0  0  0  0  0  0
   30.7868    5.0069    5.3985 C   0  0  0  0  0  0  0  0  0  0  0  0
   29.6305    5.1456    4.4057 C   0  0  0  0  0  0  0  0  0  0  0  0
   28.3469    5.6811    5.0353 C   0  0  0  0  0  0  0  0  0  0  0  0
   27.2063    5.6558    4.0292 C   0  0  0  0  0  0  0  0  0  0  0  0
   26.0308    6.0421    4.6320 F   0  0  0  0  0  0  0  0  0  0  0  0
   20.9918    0.8129    4.2841 H   0  0  0  0  0  0  0  0  0  0  0  0
   22.4976   -0.0495    3.9483 H   0  0  0  0  0  0  0  0  0  0  0  0
   21.9925   -0.0716    6.3791 H   0  0  0  0  0  0  0  0  0  0  0  0
   22.0265    2.0610    7.6506 H   0  0  0  0  0  0  0  0  0  0  0  0
   20.7194    2.0623    6.4635 H   0  0  0  0  0  0  0  0  0  0  0  0
   21.9637    4.2138    6.4124 H   0  0  0  0  0  0  0  0  0  0  0  0
   20.9728    3.3446    4.3070 H   0  0  0  0  0  0  0  0  0  0  0  0
   22.4613    4.2384    3.9822 H   0  0  0  0  0  0  0  0  0  0  0  0
   22.4186    2.1026    2.7121 H   0  0  0  0  0  0  0  0  0  0  0  0
   24.5991    2.9993    3.4978 H   0  0  0  0  0  0  0  0  0  0  0  0
   24.6182    1.2291    3.4901 H   0  0  0  0  0  0  0  0  0  0  0  0
   24.1773    0.8202    7.1626 H   0  0  0  0  0  0  0  0  0  0  0  0
   24.3680   -0.0418    5.6311 H   0  0  0  0  0  0  0  0  0  0  0  0
   24.3277    4.2389    5.6700 H   0  0  0  0  0  0  0  0  0  0  0  0
   24.1532    3.3377    7.1839 H   0  0  0  0  0  0  0  0  0  0  0  0
   26.3485    2.9518    6.0859 H   0  0  0  0  0  0  0  0  0  0  0  0
   32.6051    2.0610    5.7127 H   0  0  0  0  0  0  0  0  0  0  0  0
   33.0952   -0.0995    4.6252 H   0  0  0  0  0  0  0  0  0  0  0  0
   31.3075   -1.5882    3.8886 H   0  0  0  0  0  0  0  0  0  0  0  0
   28.9156   -0.9729    4.2112 H   0  0  0  0  0  0  0  0  0  0  0  0
   31.3960    3.8291    7.1124 H   0  0  0  0  0  0  0  0  0  0  0  0
   29.7728    4.5311    7.2605 H   0  0  0  0  0  0  0  0  0  0  0  0
   31.0454    5.9837    5.8099 H   0  0  0  0  0  0  0  0  0  0  0  0
   31.6558    4.6274    4.8570 H   0  0  0  0  0  0  0  0  0  0  0  0
   29.4249    4.1704    3.9586 H   0  0  0  0  0  0  0  0  0  0  0  0
   29.9446    5.8114    3.5988 H   0  0  0  0  0  0  0  0  0  0  0  0
   28.0576    5.0525    5.8776 H   0  0  0  0  0  0  0  0  0  0  0  0
   28.4951    6.7014    5.3943 H   0  0  0  0  0  0  0  0  0  0  0  0
   27.3730    6.3462    3.1960 H   0  0  0  0  0  0  0  0  0  0  0  0
   27.0410    4.6424    3.6476 H   0  0  0  0  0  0  0  0  0  0  0  0
  1  2  1  0
  2  3  1  0
  3  4  1  0
  4  5  1  0
  5  6  1  0
  6  7  1  0
  7  8  1  0
  8  9  1  0
  8 10  1  0
  8 11  1  6
 11 12  1  0
 12 13  2  0
 12 14  1  0
 14 15  2  0
 15 16  1  0
 16 17  1  0
 17 18  2  0
 18 19  1  0
 19 20  2  0
 20 21  1  0
 21 22  2  0
 16 23  1  0
 23 24  1  0
 24 25  1  0
 25 26  1  0
 26 27  1  0
 27 28  1  0
  6  1  1  0
  9  2  1  0
 10  4  1  0
 22 14  1  0
 22 17  1  0
  1 29  1  0
  1 30  1  0
  2 31  1  1
  3 32  1  0
  3 33  1  0
  4 34  1  1
  5 35  1  0
  5 36  1  0
  6 37  1  6
  7 38  1  0
  7 39  1  0
  9 40  1  0
  9 41  1  0
 10 42  1  0
 10 43  1  0
 11 44  1  0
 18 45  1  0
 19 46  1  0
 20 47  1  0
 21 48  1  0
 23 49  1  0
 23 50  1  0
 24 51  1  0
 24 52  1  0
 25 53  1  0
 25 54  1  0
 26 55  1  0
 26 56  1  0
 27 57  1  0
 27 58  1  0
M  END
$$$$
