
     RDKit          3D

 43 44  0  0  0  0  0  0  0  0999 V2000
   24.6670   -1.5641    4.8397 C   0  0  0  0  0  0  0  0  0  0  0  0
   24.9733   -0.7468    6.1051 C   0  0  2  0  0  0  0  0  0  0  0  0
   23.7701    0.1153    6.4796 C   0  0  0  0  0  0  0  0  0  0  0  0
   24.0417    1.0044    8.0554 S   0  0  0  0  0  0  0  0  0  0  0  0
   22.8385    1.7130    8.3725 O   0  0  0  0  0  0  0  0  0  0  0  0
   24.5211    0.0247    9.0105 O   0  0  0  0  0  0  0  0  0  0  0  0
   25.3686    2.1809    7.7824 C   0  0  0  0  0  0  0  0  0  0  0  0
   25.1467    3.2743    6.9662 C   0  0  0  0  0  0  0  0  0  0  0  0
   26.1848    4.1524    6.7149 C   0  0  0  0  0  0  0  0  0  0  0  0
   27.4168    3.9081    7.3011 C   0  0  0  0  0  0  0  0  0  0  0  0
   27.6383    2.8333    8.1464 C   0  0  0  0  0  0  0  0  0  0  0  0
   26.5931    1.9578    8.3829 C   0  0  0  0  0  0  0  0  0  0  0  0
   28.4367    4.7403    7.0378 F   0  0  0  0  0  0  0  0  0  0  0  0
   26.1440    0.1997    5.7492 C   0  0  0  0  0  0  0  0  0  0  0  0
   25.9817    1.1867    5.0635 O   0  0  0  0  0  0  0  0  0  0  0  0
   27.3177   -0.2316    6.2686 N   0  0  0  0  0  0  0  0  0  0  0  0
   28.5626    0.3747    6.2294 C   0  0  0  0  0  0  0  0  0  0  0  0
   29.5796   -0.1718    7.0148 C   0  0  0  0  0  0  0  0  0  0  0  0
   30.8304    0.4132    7.0336 C   0  0  0  0  0  0  0  0  0  0  0  0
   31.0912    1.5576    6.2687 C   0  0  0  0  0  0  0  0  0  0  0  0
   30.0714    2.0904    5.4791 C   0  0  0  0  0  0  0  0  0  0  0  0
   28.8225    1.5069    5.4556 C   0  0  0  0  0  0  0  0  0  0  0  0
   32.3637    2.1774    6.2820 C   0  0  0  0  0  0  0  0  0  0  0  0
   33.3839    2.6971    6.2754 N   0  0  0  0  0  0  0  0  0  0  0  0
   31.9285   -0.1633    7.8884 C   0  0  0  0  0  0  0  0  0  0  0  0
   33.0058   -0.5118    7.1708 F   0  0  0  0  0  0  0  0  0  0  0  0
   31.5396   -1.2656    8.5467 F   0  0  0  0  0  0  0  0  0  0  0  0
   32.3465    0.7048    8.8236 F   0  0  0  0  0  0  0  0  0  0  0  0
   25.3444   -1.6438    7.1238 O   0  0  0  0  0  0  0  0  0  0  0  0
   24.4761   -0.8998    4.0024 H   0  0  0  0  0  0  0  0  0  0  0  0
   23.8003   -2.1952    5.0143 H   0  0  0  0  0  0  0  0  0  0  0  0
   25.5171   -2.2011    4.6100 H   0  0  0  0  0  0  0  0  0  0  0  0
   23.5814    0.8646    5.7165 H   0  0  0  0  0  0  0  0  0  0  0  0
   22.8806   -0.4895    6.6452 H   0  0  0  0  0  0  0  0  0  0  0  0
   24.1701    3.4294    6.5377 H   0  0  0  0  0  0  0  0  0  0  0  0
   26.0569    5.0091    6.0732 H   0  0  0  0  0  0  0  0  0  0  0  0
   28.6074    2.6947    8.5989 H   0  0  0  0  0  0  0  0  0  0  0  0
   26.7094    1.1065    9.0353 H   0  0  0  0  0  0  0  0  0  0  0  0
   27.2202   -1.0785    6.8296 H   0  0  0  0  0  0  0  0  0  0  0  0
   29.3877   -1.0516    7.6104 H   0  0  0  0  0  0  0  0  0  0  0  0
   30.2711    2.9711    4.8887 H   0  0  0  0  0  0  0  0  0  0  0  0
   28.0372    1.9222    4.8463 H   0  0  0  0  0  0  0  0  0  0  0  0
   25.0886   -1.2646    7.9906 H   0  0  0  0  0  0  0  0  0  0  0  0
  1  2  1  0
  2  3  1  0
  3  4  1  0
  4  5  2  0
  4  6  2  0
  4  7  1  0
  7  8  2  0
  8  9  1  0
  9 10  2  0
 10 11  1  0
 11 12  2  0
 10 13  1  0
  2 14  1  0
 14 15  2  0
 14 16  1  0
 16 17  1  0
 17 18  2  0
 18 19  1  0
 19 20  2  0
 20 21  1  0
 21 22  2  0
 20 23  1  0
 23 24  3  0
 19 25  1  0
 25 26  1  0
 25 27  1  0
 25 28  1  0
  2 29  1  1
 12  7  1  0
 22 17  1  0
  1 30  1  0
  1 31  1  0
  1 32  1  0
  3 33  1  0
  3 34  1  0
  8 35  1  0
  9 36  1  0
 11 37  1  0
 12 38  1  0
 16 39  1  0
 18 40  1  0
 21 41  1  0
 22 42  1  0
 29 43  1  0
M  END
$$$$
