
     RDKit          3D

 45 48  0  0  0  0  0  0  0  0999 V2000
   31.4084    3.5442    3.5871 C   0  0  0  0  0  0  0  0  0  0  0  0
   31.2024    3.0658    5.0279 C   0  0  2  0  0  0  0  0  0  0  0  0
   31.4274    1.5387    5.1495 C   0  0  0  0  0  0  0  0  0  0  0  0
   30.0465    0.8653    5.2479 C   0  0  0  0  0  0  0  0  0  0  0  0
   29.0644    1.9873    4.9195 C   0  0  2  0  0  0  0  0  0  0  0  0
   29.7289    3.2412    5.5059 C   0  0  2  0  0  0  0  0  0  0  0  0
   28.9573    4.4198    5.0142 C   0  0  0  0  0  0  0  0  0  0  0  0
   27.6353    4.3269    4.8240 C   0  0  0  0  0  0  0  0  0  0  0  0
   26.8616    3.1240    5.0452 C   0  0  0  0  0  0  0  0  0  0  0  0
   25.5022    3.0936    4.9699 C   0  0  0  0  0  0  0  0  0  0  0  0
   24.6501    4.2917    4.6335 C   0  0  0  0  0  0  0  0  0  0  0  0
   23.3757    4.3289    5.4713 C   0  0  0  0  0  0  0  0  0  0  0  0
   22.5868    3.0454    5.3240 C   0  0  0  0  0  0  0  0  0  0  0  0
   21.3718    3.0182    5.3283 O   0  0  0  0  0  0  0  0  0  0  0  0
   23.4103    1.8529    5.2392 C   0  0  0  0  0  0  0  0  0  0  0  0
   24.7613    1.8657    5.1565 C   0  0  0  0  0  0  0  0  0  0  0  0
   25.5059    0.5638    5.2523 C   0  0  0  0  0  0  0  0  0  0  0  0
   26.9162    0.6737    4.6967 C   0  0  0  0  0  0  0  0  0  0  0  0
   27.6177    1.8504    5.3719 C   0  0  1  0  0  0  0  0  0  0  0  0
   29.7034    3.2837    7.0434 C   0  0  0  0  0  0  0  0  0  0  0  0
   32.1427    3.7052    5.8673 O   0  0  0  0  0  0  0  0  0  0  0  0
   31.2095    4.6112    3.5004 H   0  0  0  0  0  0  0  0  0  0  0  0
   32.4427    3.3648    3.3000 H   0  0  0  0  0  0  0  0  0  0  0  0
   30.7589    3.0162    2.8961 H   0  0  0  0  0  0  0  0  0  0  0  0
   32.0297    1.3576    6.0383 H   0  0  0  0  0  0  0  0  0  0  0  0
   31.9874    1.1741    4.2901 H   0  0  0  0  0  0  0  0  0  0  0  0
   29.8657    0.4817    6.2522 H   0  0  0  0  0  0  0  0  0  0  0  0
   29.9599    0.0326    4.5515 H   0  0  0  0  0  0  0  0  0  0  0  0
   29.0431    2.1135    3.8307 H   0  0  0  0  0  0  0  0  0  0  0  0
   29.4630    5.3638    4.8697 H   0  0  0  0  0  0  0  0  0  0  0  0
   27.1058    5.2048    4.4871 H   0  0  0  0  0  0  0  0  0  0  0  0
   25.1898    5.2247    4.7835 H   0  0  0  0  0  0  0  0  0  0  0  0
   24.3737    4.2298    3.5749 H   0  0  0  0  0  0  0  0  0  0  0  0
   22.7489    5.1771    5.1923 H   0  0  0  0  0  0  0  0  0  0  0  0
   23.6323    4.4332    6.5302 H   0  0  0  0  0  0  0  0  0  0  0  0
   22.8815    0.9113    5.2960 H   0  0  0  0  0  0  0  0  0  0  0  0
   24.9435   -0.2177    4.7379 H   0  0  0  0  0  0  0  0  0  0  0  0
   25.5593    0.2816    6.3097 H   0  0  0  0  0  0  0  0  0  0  0  0
   27.4653   -0.2502    4.8810 H   0  0  0  0  0  0  0  0  0  0  0  0
   26.8805    0.8417    3.6177 H   0  0  0  0  0  0  0  0  0  0  0  0
   27.5892    1.6826    6.4553 H   0  0  0  0  0  0  0  0  0  0  0  0
   30.2549    4.1541    7.3913 H   0  0  0  0  0  0  0  0  0  0  0  0
   28.6834    3.3632    7.4092 H   0  0  0  0  0  0  0  0  0  0  0  0
   30.1739    2.4018    7.4652 H   0  0  0  0  0  0  0  0  0  0  0  0
   32.0861    4.6564    5.7256 H   0  0  0  0  0  0  0  0  0  0  0  0
  1  2  1  0
  2  3  1  0
  3  4  1  0
  4  5  1  0
  5  6  1  0
  6  7  1  0
  7  8  2  0
  8  9  1  0
  9 10  2  0
 10 11  1  0
 11 12  1  0
 12 13  1  0
 13 14  2  0
 13 15  1  0
 15 16  2  0
 16 17  1  0
 17 18  1  0
 18 19  1  0
  6 20  1  1
  2 21  1  1
  6  2  1  0
 19  5  1  0
 19  9  1  0
 16 10  1  0
  1 22  1  0
  1 23  1  0
  1 24  1  0
  3 25  1  0
  3 26  1  0
  4 27  1  0
  4 28  1  0
  5 29  1  6
  7 30  1  0
  8 31  1  0
 11 32  1  0
 11 33  1  0
 12 34  1  0
 12 35  1  0
 15 36  1  0
 17 37  1  0
 17 38  1  0
 18 39  1  0
 18 40  1  0
 19 41  1  1
 20 42  1  0
 20 43  1  0
 20 44  1  0
 21 45  1  0
M  END
$$$$
