
     RDKit          3D

 59 61  0  0  0  0  0  0  0  0999 V2000
   20.9733    6.4172    2.8196 C   0  0  0  0  0  0  0  0  0  0  0  0
   21.6405    5.1689    2.8188 O   0  0  0  0  0  0  0  0  0  0  0  0
   22.8048    4.9344    3.5016 C   0  0  0  0  0  0  0  0  0  0  0  0
   23.3110    5.8822    4.1679 O   0  0  0  0  0  0  0  0  0  0  0  0
   23.4607    3.6106    3.4668 C   0  0  1  0  0  0  0  0  0  0  0  0
   24.6830    3.6521    4.2848 N   0  0  0  0  0  0  0  0  0  0  0  0
   25.9149    3.4135    3.7006 C   0  0  0  0  0  0  0  0  0  0  0  0
   25.8895    3.1582    2.4344 O   0  0  0  0  0  0  0  0  0  0  0  0
   27.2293    3.4044    4.2938 C   0  0  0  0  0  0  0  0  0  0  0  0
   28.3177    2.9885    3.5831 N   0  0  0  0  0  0  0  0  0  0  0  0
   29.3955    3.0810    4.3339 N   0  0  0  0  0  0  0  0  0  0  0  0
   30.7141    2.7153    3.8884 C   0  0  0  0  0  0  0  0  0  0  0  0
   30.9903    1.2562    4.1831 C   0  0  0  0  0  0  0  0  0  0  0  0
   32.4881    1.1321    3.5894 C   0  0  0  0  0  0  0  0  0  0  0  0
   33.2747   -0.2310    3.2974 C   0  0  0  0  0  0  0  0  0  0  0  0
   32.8859   -0.7182    4.5838 C   0  0  0  0  0  0  0  0  0  0  0  0
   31.3621   -0.8455    4.0832 C   0  0  0  0  0  0  0  0  0  0  0  0
   30.5492    0.2964    3.2699 C   0  0  0  0  0  0  0  0  0  0  0  0
   29.1050    3.5510    5.5570 C   0  0  0  0  0  0  0  0  0  0  0  0
   29.8558    3.8283    6.6784 C   0  0  0  0  0  0  0  0  0  0  0  0
   29.2499    4.3249    7.8190 C   0  0  0  0  0  0  0  0  0  0  0  0
   27.8838    4.5153    7.7513 C   0  0  0  0  0  0  0  0  0  0  0  0
   27.1436    4.2414    6.6448 C   0  0  0  0  0  0  0  0  0  0  0  0
   27.7216    3.7526    5.5162 C   0  0  0  0  0  0  0  0  0  0  0  0
   22.5409    2.5100    3.9525 C   0  0  0  0  0  0  0  0  0  0  0  0
   22.1601    2.8497    5.3797 C   0  0  0  0  0  0  0  0  0  0  0  0
   23.1657    1.1577    3.8495 C   0  0  0  0  0  0  0  0  0  0  0  0
   21.2684    2.4879    3.1358 C   0  0  0  0  0  0  0  0  0  0  0  0
   21.6479    7.1746    3.2700 H   0  0  0  0  0  0  0  0  0  0  0  0
   20.0711    6.3139    3.4518 H   0  0  0  0  0  0  0  0  0  0  0  0
   20.6844    6.6519    1.7670 H   0  0  0  0  0  0  0  0  0  0  0  0
   23.7034    3.3779    2.4172 H   0  0  0  0  0  0  0  0  0  0  0  0
   24.5747    3.8477    5.2607 H   0  0  0  0  0  0  0  0  0  0  0  0
   30.8922    2.9259    2.8223 H   0  0  0  0  0  0  0  0  0  0  0  0
   31.4703    3.3088    4.4502 H   0  0  0  0  0  0  0  0  0  0  0  0
   31.1240    1.0707    5.2366 H   0  0  0  0  0  0  0  0  0  0  0  0
   33.1103    1.7607    4.2218 H   0  0  0  0  0  0  0  0  0  0  0  0
   32.3992    1.5777    2.5892 H   0  0  0  0  0  0  0  0  0  0  0  0
   34.3010    0.1424    3.2448 H   0  0  0  0  0  0  0  0  0  0  0  0
   32.9487   -0.6489    2.3642 H   0  0  0  0  0  0  0  0  0  0  0  0
   32.9442   -0.0991    5.4418 H   0  0  0  0  0  0  0  0  0  0  0  0
   33.1321   -1.7636    4.7681 H   0  0  0  0  0  0  0  0  0  0  0  0
   30.8055   -0.9181    5.0170 H   0  0  0  0  0  0  0  0  0  0  0  0
   31.2890   -1.7656    3.5190 H   0  0  0  0  0  0  0  0  0  0  0  0
   30.9213    0.1758    2.2654 H   0  0  0  0  0  0  0  0  0  0  0  0
   29.5287   -0.1043    3.3051 H   0  0  0  0  0  0  0  0  0  0  0  0
   30.9094    3.6590    6.6665 H   0  0  0  0  0  0  0  0  0  0  0  0
   29.8412    4.5430    8.7016 H   0  0  0  0  0  0  0  0  0  0  0  0
   27.4183    4.9073    8.6562 H   0  0  0  0  0  0  0  0  0  0  0  0
   26.0995    4.4189    6.6591 H   0  0  0  0  0  0  0  0  0  0  0  0
   21.1431    2.4532    5.5537 H   0  0  0  0  0  0  0  0  0  0  0  0
   22.0927    3.9587    5.4369 H   0  0  0  0  0  0  0  0  0  0  0  0
   22.8801    2.4279    6.0902 H   0  0  0  0  0  0  0  0  0  0  0  0
   23.4332    0.9639    2.8018 H   0  0  0  0  0  0  0  0  0  0  0  0
   22.3943    0.4190    4.1483 H   0  0  0  0  0  0  0  0  0  0  0  0
   24.0449    1.0455    4.5321 H   0  0  0  0  0  0  0  0  0  0  0  0
   20.8463    1.4703    3.1212 H   0  0  0  0  0  0  0  0  0  0  0  0
   20.5720    3.2209    3.5917 H   0  0  0  0  0  0  0  0  0  0  0  0
   21.4493    2.8741    2.0949 H   0  0  0  0  0  0  0  0  0  0  0  0
  1  2  1  0
  2  3  1  0
  3  4  2  0
  3  5  1  0
  5  6  1  0
  6  7  1  0
  7  8  2  0
  7  9  1  0
  9 10  2  0
 10 11  1  0
 11 12  1  0
 12 13  1  0
 13 14  1  0
 14 15  1  0
 15 16  1  0
 16 17  1  0
 17 18  1  0
 11 19  1  0
 19 20  2  0
 20 21  1  0
 21 22  2  0
 22 23  1  0
 23 24  2  0
  5 25  1  0
 25 26  1  0
 25 27  1  0
 25 28  1  0
 24  9  1  0
 18 13  1  0
 24 19  1  0
  1 29  1  0
  1 30  1  0
  1 31  1  0
  5 32  1  6
  6 33  1  0
 12 34  1  0
 12 35  1  0
 13 36  1  0
 14 37  1  0
 14 38  1  0
 15 39  1  0
 15 40  1  0
 16 41  1  0
 16 42  1  0
 17 43  1  0
 17 44  1  0
 18 45  1  0
 18 46  1  0
 20 47  1  0
 21 48  1  0
 22 49  1  0
 23 50  1  0
 26 51  1  0
 26 52  1  0
 26 53  1  0
 27 54  1  0
 27 55  1  0
 27 56  1  0
 28 57  1  0
 28 58  1  0
 28 59  1  0
M  END
$$$$
