
     RDKit          3D

 59 61  0  0  0  0  0  0  0  0999 V2000
   22.1816   -0.1993    3.0255 C   0  0  0  0  0  0  0  0  0  0  0  0
   23.0105    0.9184    3.3039 O   0  0  0  0  0  0  0  0  0  0  0  0
   22.5107    2.2310    3.3358 C   0  0  0  0  0  0  0  0  0  0  0  0
   21.2759    2.4373    3.1092 O   0  0  0  0  0  0  0  0  0  0  0  0
   23.4411    3.3401    3.6336 C   0  0  1  0  0  0  0  0  0  0  0  0
   24.8054    2.9070    3.8644 N   0  0  0  0  0  0  0  0  0  0  0  0
   25.4094    3.0876    5.1323 C   0  0  0  0  0  0  0  0  0  0  0  0
   24.7386    3.6368    6.0710 O   0  0  0  0  0  0  0  0  0  0  0  0
   26.7816    2.6512    5.3630 C   0  0  0  0  0  0  0  0  0  0  0  0
   27.6460    2.0621    4.5240 N   0  0  0  0  0  0  0  0  0  0  0  0
   28.7975    1.8307    5.1411 N   0  0  0  0  0  0  0  0  0  0  0  0
   29.9930    1.1787    4.4927 C   0  0  0  0  0  0  0  0  0  0  0  0
   30.8460    2.1366    3.8927 C   0  0  0  0  0  0  0  0  0  0  0  0
   30.4392    3.0031    2.8378 C   0  0  0  0  0  0  0  0  0  0  0  0
   30.1351    1.7069    1.8996 C   0  0  0  0  0  0  0  0  0  0  0  0
   31.0833    0.4492    1.7002 C   0  0  0  0  0  0  0  0  0  0  0  0
   32.1942    1.2953    1.5232 C   0  0  0  0  0  0  0  0  0  0  0  0
   32.1403    1.7117    3.1091 C   0  0  0  0  0  0  0  0  0  0  0  0
   28.7484    2.2558    6.4160 C   0  0  0  0  0  0  0  0  0  0  0  0
   29.6695    2.2407    7.4423 C   0  0  0  0  0  0  0  0  0  0  0  0
   29.3276    2.7609    8.6742 C   0  0  0  0  0  0  0  0  0  0  0  0
   28.0616    3.2887    8.8527 C   0  0  0  0  0  0  0  0  0  0  0  0
   27.1395    3.2964    7.8020 C   0  0  0  0  0  0  0  0  0  0  0  0
   27.4697    2.7782    6.5630 C   0  0  0  0  0  0  0  0  0  0  0  0
   23.3781    4.4668    2.6260 C   0  0  0  0  0  0  0  0  0  0  0  0
   24.3643    5.5852    2.9881 C   0  0  0  0  0  0  0  0  0  0  0  0
   22.0179    5.1315    2.6420 C   0  0  0  0  0  0  0  0  0  0  0  0
   23.6757    4.0396    1.2261 C   0  0  0  0  0  0  0  0  0  0  0  0
   22.1310   -0.4214    1.9430 H   0  0  0  0  0  0  0  0  0  0  0  0
   21.1585    0.0385    3.4362 H   0  0  0  0  0  0  0  0  0  0  0  0
   22.5974   -1.0566    3.6244 H   0  0  0  0  0  0  0  0  0  0  0  0
   23.0909    3.7805    4.6050 H   0  0  0  0  0  0  0  0  0  0  0  0
   25.3251    2.4573    3.0609 H   0  0  0  0  0  0  0  0  0  0  0  0
   29.5774    0.3530    3.8717 H   0  0  0  0  0  0  0  0  0  0  0  0
   30.4927    0.6351    5.3447 H   0  0  0  0  0  0  0  0  0  0  0  0
   31.3324    2.7705    4.7113 H   0  0  0  0  0  0  0  0  0  0  0  0
   31.1265    3.6417    2.3423 H   0  0  0  0  0  0  0  0  0  0  0  0
   29.4414    3.4131    2.9226 H   0  0  0  0  0  0  0  0  0  0  0  0
   30.0843    2.1687    0.9068 H   0  0  0  0  0  0  0  0  0  0  0  0
   29.1394    1.3449    2.1729 H   0  0  0  0  0  0  0  0  0  0  0  0
   31.0171   -0.2860    2.4478 H   0  0  0  0  0  0  0  0  0  0  0  0
   30.6906    0.0761    0.7108 H   0  0  0  0  0  0  0  0  0  0  0  0
   33.2133    0.8954    1.4334 H   0  0  0  0  0  0  0  0  0  0  0  0
   32.0971    2.2136    0.9779 H   0  0  0  0  0  0  0  0  0  0  0  0
   32.8751    2.5197    3.1313 H   0  0  0  0  0  0  0  0  0  0  0  0
   32.5104    0.8151    3.5841 H   0  0  0  0  0  0  0  0  0  0  0  0
   30.6605    1.8175    7.2711 H   0  0  0  0  0  0  0  0  0  0  0  0
   30.0579    2.7503    9.4924 H   0  0  0  0  0  0  0  0  0  0  0  0
   27.8233    3.6878    9.8262 H   0  0  0  0  0  0  0  0  0  0  0  0
   26.1436    3.7248    7.9840 H   0  0  0  0  0  0  0  0  0  0  0  0
   25.3873    5.3108    2.6647 H   0  0  0  0  0  0  0  0  0  0  0  0
   24.0678    6.4638    2.3463 H   0  0  0  0  0  0  0  0  0  0  0  0
   24.2613    5.8463    4.0461 H   0  0  0  0  0  0  0  0  0  0  0  0
   22.0890    6.1732    2.2565 H   0  0  0  0  0  0  0  0  0  0  0  0
   21.7039    5.2059    3.7139 H   0  0  0  0  0  0  0  0  0  0  0  0
   21.2423    4.5440    2.0973 H   0  0  0  0  0  0  0  0  0  0  0  0
   24.6188    3.4535    1.1423 H   0  0  0  0  0  0  0  0  0  0  0  0
   22.8151    3.5690    0.7084 H   0  0  0  0  0  0  0  0  0  0  0  0
   23.8910    4.9767    0.6423 H   0  0  0  0  0  0  0  0  0  0  0  0
  1  2  1  0
  2  3  1  0
  3  4  2  0
  3  5  1  0
  5  6  1  0
  6  7  1  0
  7  8  2  0
  7  9  1  0
  9 10  2  0
 10 11  1  0
 11 12  1  0
 12 13  1  0
 13 14  1  0
 14 15  1  0
 15 16  1  0
 16 17  1  0
 17 18  1  0
 11 19  1  0
 19 20  2  0
 20 21  1  0
 21 22  2  0
 22 23  1  0
 23 24  2  0
  5 25  1  0
 25 26  1  0
 25 27  1  0
 25 28  1  0
 24  9  1  0
 18 13  1  0
 24 19  1  0
  1 29  1  0
  1 30  1  0
  1 31  1  0
  5 32  1  1
  6 33  1  0
 12 34  1  0
 12 35  1  0
 13 36  1  0
 14 37  1  0
 14 38  1  0
 15 39  1  0
 15 40  1  0
 16 41  1  0
 16 42  1  0
 17 43  1  0
 17 44  1  0
 18 45  1  0
 18 46  1  0
 20 47  1  0
 21 48  1  0
 22 49  1  0
 23 50  1  0
 26 51  1  0
 26 52  1  0
 26 53  1  0
 27 54  1  0
 27 55  1  0
 27 56  1  0
 28 57  1  0
 28 58  1  0
 28 59  1  0
M  END
$$$$
