
     RDKit          3D

 59 61  0  0  0  0  0  0  0  0999 V2000
   21.5535    6.1774    2.3660 C   0  0  0  0  0  0  0  0  0  0  0  0
   21.8951    4.8628    2.8199 O   0  0  0  0  0  0  0  0  0  0  0  0
   22.9981    4.6671    3.6502 C   0  0  0  0  0  0  0  0  0  0  0  0
   23.6468    5.7100    3.9568 O   0  0  0  0  0  0  0  0  0  0  0  0
   23.3871    3.3216    4.1431 C   0  0  1  0  0  0  0  0  0  0  0  0
   24.5761    3.4994    4.9772 N   0  0  0  0  0  0  0  0  0  0  0  0
   25.7808    2.8552    4.6731 C   0  0  0  0  0  0  0  0  0  0  0  0
   25.7451    2.1061    3.6259 O   0  0  0  0  0  0  0  0  0  0  0  0
   27.0339    2.9098    5.3588 C   0  0  0  0  0  0  0  0  0  0  0  0
   28.0468    2.0442    5.0650 N   0  0  0  0  0  0  0  0  0  0  0  0
   29.0987    2.3010    5.8173 N   0  0  0  0  0  0  0  0  0  0  0  0
   30.4049    1.5763    5.7928 C   0  0  0  0  0  0  0  0  0  0  0  0
   31.3260    2.1462    4.8638 C   0  0  0  0  0  0  0  0  0  0  0  0
   32.7486    1.4414    4.8529 C   0  0  0  0  0  0  0  0  0  0  0  0
   33.1821    0.1309    4.0018 C   0  0  0  0  0  0  0  0  0  0  0  0
   31.9940   -0.5381    4.4086 C   0  0  0  0  0  0  0  0  0  0  0  0
   31.1271    0.4393    3.5072 C   0  0  0  0  0  0  0  0  0  0  0  0
   31.2956    2.0488    3.4492 C   0  0  0  0  0  0  0  0  0  0  0  0
   28.8607    3.3322    6.6429 C   0  0  0  0  0  0  0  0  0  0  0  0
   29.6196    3.9647    7.5848 C   0  0  0  0  0  0  0  0  0  0  0  0
   29.1008    5.0352    8.2960 C   0  0  0  0  0  0  0  0  0  0  0  0
   27.8072    5.4016    7.9924 C   0  0  0  0  0  0  0  0  0  0  0  0
   27.0445    4.7634    7.0438 C   0  0  0  0  0  0  0  0  0  0  0  0
   27.5477    3.7094    6.3414 C   0  0  0  0  0  0  0  0  0  0  0  0
   22.2689    2.6708    4.9258 C   0  0  0  0  0  0  0  0  0  0  0  0
   22.7556    1.3062    5.3873 C   0  0  0  0  0  0  0  0  0  0  0  0
   21.9648    3.5370    6.1233 C   0  0  0  0  0  0  0  0  0  0  0  0
   21.0931    2.4537    4.0303 C   0  0  0  0  0  0  0  0  0  0  0  0
   20.4579    6.3128    2.3569 H   0  0  0  0  0  0  0  0  0  0  0  0
   22.0558    6.3723    1.4169 H   0  0  0  0  0  0  0  0  0  0  0  0
   21.9391    6.9440    3.0895 H   0  0  0  0  0  0  0  0  0  0  0  0
   23.6324    2.6454    3.3219 H   0  0  0  0  0  0  0  0  0  0  0  0
   24.4929    4.0926    5.7875 H   0  0  0  0  0  0  0  0  0  0  0  0
   30.0756    0.5484    5.5456 H   0  0  0  0  0  0  0  0  0  0  0  0
   30.7294    1.5233    6.8648 H   0  0  0  0  0  0  0  0  0  0  0  0
   31.5763    3.2322    5.1434 H   0  0  0  0  0  0  0  0  0  0  0  0
   32.9907    1.2352    5.8988 H   0  0  0  0  0  0  0  0  0  0  0  0
   33.4246    2.2042    4.4476 H   0  0  0  0  0  0  0  0  0  0  0  0
   33.3762    0.4624    3.0177 H   0  0  0  0  0  0  0  0  0  0  0  0
   34.0884   -0.1487    4.5459 H   0  0  0  0  0  0  0  0  0  0  0  0
   31.9151   -1.5367    3.9135 H   0  0  0  0  0  0  0  0  0  0  0  0
   31.7185   -0.6160    5.4018 H   0  0  0  0  0  0  0  0  0  0  0  0
   30.0820    0.2041    3.6270 H   0  0  0  0  0  0  0  0  0  0  0  0
   31.4138    0.1539    2.4774 H   0  0  0  0  0  0  0  0  0  0  0  0
   32.1947    2.1892    2.8865 H   0  0  0  0  0  0  0  0  0  0  0  0
   30.4179    2.3431    2.8811 H   0  0  0  0  0  0  0  0  0  0  0  0
   30.6391    3.6727    7.8207 H   0  0  0  0  0  0  0  0  0  0  0  0
   29.6615    5.5680    9.0512 H   0  0  0  0  0  0  0  0  0  0  0  0
   27.3656    6.2411    8.5324 H   0  0  0  0  0  0  0  0  0  0  0  0
   26.0653    5.0983    6.8496 H   0  0  0  0  0  0  0  0  0  0  0  0
   23.6577    1.3867    6.0269 H   0  0  0  0  0  0  0  0  0  0  0  0
   23.0283    0.7137    4.4855 H   0  0  0  0  0  0  0  0  0  0  0  0
   21.9460    0.7557    5.9076 H   0  0  0  0  0  0  0  0  0  0  0  0
   22.8002    3.4028    6.8261 H   0  0  0  0  0  0  0  0  0  0  0  0
   20.9886    3.2791    6.5894 H   0  0  0  0  0  0  0  0  0  0  0  0
   21.9461    4.5908    5.8231 H   0  0  0  0  0  0  0  0  0  0  0  0
   21.4258    2.5212    2.9781 H   0  0  0  0  0  0  0  0  0  0  0  0
   20.2843    3.2056    4.1548 H   0  0  0  0  0  0  0  0  0  0  0  0
   20.6420    1.4313    4.1494 H   0  0  0  0  0  0  0  0  0  0  0  0
  1  2  1  0
  2  3  1  0
  3  4  2  0
  3  5  1  0
  5  6  1  0
  6  7  1  0
  7  8  2  0
  7  9  1  0
  9 10  2  0
 10 11  1  0
 11 12  1  0
 12 13  1  0
 13 14  1  0
 14 15  1  0
 15 16  1  0
 16 17  1  0
 17 18  1  0
 11 19  1  0
 19 20  2  0
 20 21  1  0
 21 22  2  0
 22 23  1  0
 23 24  2  0
  5 25  1  0
 25 26  1  0
 25 27  1  0
 25 28  1  0
 24  9  1  0
 18 13  1  0
 24 19  1  0
  1 29  1  0
  1 30  1  0
  1 31  1  0
  5 32  1  6
  6 33  1  0
 12 34  1  0
 12 35  1  0
 13 36  1  0
 14 37  1  0
 14 38  1  0
 15 39  1  0
 15 40  1  0
 16 41  1  0
 16 42  1  0
 17 43  1  0
 17 44  1  0
 18 45  1  0
 18 46  1  0
 20 47  1  0
 21 48  1  0
 22 49  1  0
 23 50  1  0
 26 51  1  0
 26 52  1  0
 26 53  1  0
 27 54  1  0
 27 55  1  0
 27 56  1  0
 28 57  1  0
 28 58  1  0
 28 59  1  0
M  END
$$$$
