
     RDKit          3D

 59 61  0  0  0  0  0  0  0  0999 V2000
   23.1695    5.5348    2.3564 C   0  0  0  0  0  0  0  0  0  0  0  0
   23.4782    4.4769    3.2302 O   0  0  0  0  0  0  0  0  0  0  0  0
   22.6268    3.3892    3.4657 C   0  0  0  0  0  0  0  0  0  0  0  0
   21.5493    3.3877    2.8458 O   0  0  0  0  0  0  0  0  0  0  0  0
   23.0310    2.2955    4.4305 C   0  0  1  0  0  0  0  0  0  0  0  0
   24.3590    2.6679    4.8930 N   0  0  0  0  0  0  0  0  0  0  0  0
   25.5013    2.1657    4.2439 C   0  0  0  0  0  0  0  0  0  0  0  0
   25.2765    1.4033    3.2404 O   0  0  0  0  0  0  0  0  0  0  0  0
   26.8718    2.4064    4.5661 C   0  0  0  0  0  0  0  0  0  0  0  0
   27.8953    2.1482    3.7064 N   0  0  0  0  0  0  0  0  0  0  0  0
   29.0635    2.4051    4.2353 N   0  0  0  0  0  0  0  0  0  0  0  0
   30.3872    2.1516    3.6560 C   0  0  0  0  0  0  0  0  0  0  0  0
   30.7429    0.7821    3.5359 C   0  0  0  0  0  0  0  0  0  0  0  0
   30.7692   -0.1821    4.7583 C   0  0  0  0  0  0  0  0  0  0  0  0
   31.6161    0.3182    6.1151 C   0  0  0  0  0  0  0  0  0  0  0  0
   32.4415    0.7436    5.2546 C   0  0  0  0  0  0  0  0  0  0  0  0
   33.3838    1.2248    4.2712 C   0  0  0  0  0  0  0  0  0  0  0  0
   32.3391    0.6039    3.2041 C   0  0  0  0  0  0  0  0  0  0  0  0
   28.8330    2.8437    5.4610 C   0  0  0  0  0  0  0  0  0  0  0  0
   29.6942    3.2720    6.4382 C   0  0  0  0  0  0  0  0  0  0  0  0
   29.2749    3.7207    7.6671 C   0  0  0  0  0  0  0  0  0  0  0  0
   27.9073    3.7237    7.8876 C   0  0  0  0  0  0  0  0  0  0  0  0
   27.0067    3.2950    6.9143 C   0  0  0  0  0  0  0  0  0  0  0  0
   27.4997    2.8672    5.7195 C   0  0  0  0  0  0  0  0  0  0  0  0
   22.0551    2.1208    5.5274 C   0  0  0  0  0  0  0  0  0  0  0  0
   22.4503    1.0311    6.5368 C   0  0  0  0  0  0  0  0  0  0  0  0
   20.7084    1.6317    4.9688 C   0  0  0  0  0  0  0  0  0  0  0  0
   21.8188    3.3887    6.3153 C   0  0  0  0  0  0  0  0  0  0  0  0
   22.1995    5.3598    1.8359 H   0  0  0  0  0  0  0  0  0  0  0  0
   23.9696    5.7074    1.6023 H   0  0  0  0  0  0  0  0  0  0  0  0
   23.0931    6.4834    2.9642 H   0  0  0  0  0  0  0  0  0  0  0  0
   23.0881    1.3984    3.7575 H   0  0  0  0  0  0  0  0  0  0  0  0
   24.4127    3.3177    5.6816 H   0  0  0  0  0  0  0  0  0  0  0  0
   31.1401    2.7967    4.2349 H   0  0  0  0  0  0  0  0  0  0  0  0
   30.3856    2.6307    2.6291 H   0  0  0  0  0  0  0  0  0  0  0  0
   30.3243    0.2074    2.7424 H   0  0  0  0  0  0  0  0  0  0  0  0
   29.7918   -0.3612    5.1386 H   0  0  0  0  0  0  0  0  0  0  0  0
   31.2898   -1.0744    4.4726 H   0  0  0  0  0  0  0  0  0  0  0  0
   30.8227    0.8790    6.6021 H   0  0  0  0  0  0  0  0  0  0  0  0
   31.5913   -0.6910    6.6262 H   0  0  0  0  0  0  0  0  0  0  0  0
   33.1541   -0.4218    5.2545 H   0  0  0  0  0  0  0  0  0  0  0  0
   33.4109    1.0449    6.2234 H   0  0  0  0  0  0  0  0  0  0  0  0
   34.2877    0.7875    4.0055 H   0  0  0  0  0  0  0  0  0  0  0  0
   33.2899    2.2794    4.0232 H   0  0  0  0  0  0  0  0  0  0  0  0
   32.4750   -0.4412    3.1592 H   0  0  0  0  0  0  0  0  0  0  0  0
   32.4225    1.1283    2.2715 H   0  0  0  0  0  0  0  0  0  0  0  0
   30.7539    3.2735    6.2293 H   0  0  0  0  0  0  0  0  0  0  0  0
   29.9218    4.0556    8.4452 H   0  0  0  0  0  0  0  0  0  0  0  0
   27.5584    4.0861    8.8651 H   0  0  0  0  0  0  0  0  0  0  0  0
   25.9732    3.3038    7.1415 H   0  0  0  0  0  0  0  0  0  0  0  0
   23.5078    1.1703    6.7726 H   0  0  0  0  0  0  0  0  0  0  0  0
   21.8135    1.1453    7.4412 H   0  0  0  0  0  0  0  0  0  0  0  0
   22.2290    0.0578    6.0949 H   0  0  0  0  0  0  0  0  0  0  0  0
   20.9433    0.7245    4.3624 H   0  0  0  0  0  0  0  0  0  0  0  0
   20.2051    2.3820    4.3594 H   0  0  0  0  0  0  0  0  0  0  0  0
   20.0841    1.2846    5.8396 H   0  0  0  0  0  0  0  0  0  0  0  0
   20.9021    3.2915    6.9540 H   0  0  0  0  0  0  0  0  0  0  0  0
   22.6543    3.5866    7.0407 H   0  0  0  0  0  0  0  0  0  0  0  0
   21.7256    4.2950    5.7139 H   0  0  0  0  0  0  0  0  0  0  0  0
  1  2  1  0
  2  3  1  0
  3  4  2  0
  3  5  1  0
  5  6  1  0
  6  7  1  0
  7  8  2  0
  7  9  1  0
  9 10  2  0
 10 11  1  0
 11 12  1  0
 12 13  1  0
 13 14  1  0
 14 15  1  0
 15 16  1  0
 16 17  1  0
 17 18  1  0
 11 19  1  0
 19 20  2  0
 20 21  1  0
 21 22  2  0
 22 23  1  0
 23 24  2  0
  5 25  1  0
 25 26  1  0
 25 27  1  0
 25 28  1  0
 24  9  1  0
 18 13  1  0
 24 19  1  0
  1 29  1  0
  1 30  1  0
  1 31  1  0
  5 32  1  6
  6 33  1  0
 12 34  1  0
 12 35  1  0
 13 36  1  0
 14 37  1  0
 14 38  1  0
 15 39  1  0
 15 40  1  0
 16 41  1  0
 16 42  1  0
 17 43  1  0
 17 44  1  0
 18 45  1  0
 18 46  1  0
 20 47  1  0
 21 48  1  0
 22 49  1  0
 23 50  1  0
 26 51  1  0
 26 52  1  0
 26 53  1  0
 27 54  1  0
 27 55  1  0
 27 56  1  0
 28 57  1  0
 28 58  1  0
 28 59  1  0
M  END
$$$$
