
     RDKit          3D

 59 61  0  0  0  0  0  0  0  0999 V2000
   22.1178    5.2172    1.6742 C   0  0  0  0  0  0  0  0  0  0  0  0
   22.3598    4.2449    2.6845 O   0  0  0  0  0  0  0  0  0  0  0  0
   23.4620    4.2913    3.5217 C   0  0  0  0  0  0  0  0  0  0  0  0
   24.3216    5.2309    3.4142 O   0  0  0  0  0  0  0  0  0  0  0  0
   23.6675    3.2574    4.5554 C   0  0  1  0  0  0  0  0  0  0  0  0
   24.9048    3.5151    5.3118 N   0  0  0  0  0  0  0  0  0  0  0  0
   25.9834    2.6489    5.2866 C   0  0  0  0  0  0  0  0  0  0  0  0
   25.8366    1.5996    4.5462 O   0  0  0  0  0  0  0  0  0  0  0  0
   27.2512    2.7420    5.9613 C   0  0  0  0  0  0  0  0  0  0  0  0
   28.2916    1.9185    5.6397 N   0  0  0  0  0  0  0  0  0  0  0  0
   29.3387    2.1856    6.4036 N   0  0  0  0  0  0  0  0  0  0  0  0
   30.6281    1.4691    6.3058 C   0  0  0  0  0  0  0  0  0  0  0  0
   31.5125    2.1621    5.3372 C   0  0  0  0  0  0  0  0  0  0  0  0
   32.8316    1.4809    5.2135 C   0  0  0  0  0  0  0  0  0  0  0  0
   32.6840    0.1262    4.5758 C   0  0  0  0  0  0  0  0  0  0  0  0
   32.0993    0.2955    3.2030 C   0  0  0  0  0  0  0  0  0  0  0  0
   30.7557    0.9545    3.2926 C   0  0  0  0  0  0  0  0  0  0  0  0
   30.9347    2.3131    3.9458 C   0  0  0  0  0  0  0  0  0  0  0  0
   29.0628    3.1782    7.2582 C   0  0  0  0  0  0  0  0  0  0  0  0
   29.7820    3.8191    8.2468 C   0  0  0  0  0  0  0  0  0  0  0  0
   29.1914    4.8276    8.9790 C   0  0  0  0  0  0  0  0  0  0  0  0
   27.9037    5.1627    8.7009 C   0  0  0  0  0  0  0  0  0  0  0  0
   27.1936    4.5225    7.7171 C   0  0  0  0  0  0  0  0  0  0  0  0
   27.7370    3.5227    6.9693 C   0  0  0  0  0  0  0  0  0  0  0  0
   22.5117    3.0731    5.4839 C   0  0  0  0  0  0  0  0  0  0  0  0
   22.8932    1.9750    6.4838 C   0  0  0  0  0  0  0  0  0  0  0  0
   21.3611    2.4799    4.6788 C   0  0  0  0  0  0  0  0  0  0  0  0
   22.1239    4.2782    6.2648 C   0  0  0  0  0  0  0  0  0  0  0  0
   22.7798    6.0995    1.7527 H   0  0  0  0  0  0  0  0  0  0  0  0
   22.2419    4.6947    0.6975 H   0  0  0  0  0  0  0  0  0  0  0  0
   21.0590    5.5835    1.7140 H   0  0  0  0  0  0  0  0  0  0  0  0
   23.8063    2.2895    4.0224 H   0  0  0  0  0  0  0  0  0  0  0  0
   24.9266    4.3841    5.8487 H   0  0  0  0  0  0  0  0  0  0  0  0
   30.4079    0.4481    5.9419 H   0  0  0  0  0  0  0  0  0  0  0  0
   31.0368    1.4756    7.3278 H   0  0  0  0  0  0  0  0  0  0  0  0
   31.7292    3.2311    5.6531 H   0  0  0  0  0  0  0  0  0  0  0  0
   33.5674    2.1146    4.6376 H   0  0  0  0  0  0  0  0  0  0  0  0
   33.3293    1.3018    6.1921 H   0  0  0  0  0  0  0  0  0  0  0  0
   31.9541   -0.4651    5.1598 H   0  0  0  0  0  0  0  0  0  0  0  0
   33.6744   -0.4072    4.5325 H   0  0  0  0  0  0  0  0  0  0  0  0
   32.7890    0.9964    2.6554 H   0  0  0  0  0  0  0  0  0  0  0  0
   32.0567   -0.6907    2.6864 H   0  0  0  0  0  0  0  0  0  0  0  0
   30.4557    1.1837    2.2361 H   0  0  0  0  0  0  0  0  0  0  0  0
   29.9967    0.3259    3.7576 H   0  0  0  0  0  0  0  0  0  0  0  0
   31.7013    2.8530    3.3522 H   0  0  0  0  0  0  0  0  0  0  0  0
   30.0128    2.9184    3.9146 H   0  0  0  0  0  0  0  0  0  0  0  0
   30.8154    3.5279    8.4482 H   0  0  0  0  0  0  0  0  0  0  0  0
   29.7341    5.3567    9.7704 H   0  0  0  0  0  0  0  0  0  0  0  0
   27.4316    5.9398    9.2570 H   0  0  0  0  0  0  0  0  0  0  0  0
   26.1873    4.8099    7.5431 H   0  0  0  0  0  0  0  0  0  0  0  0
   22.1618    1.9692    7.3035 H   0  0  0  0  0  0  0  0  0  0  0  0
   23.9038    2.1192    6.8936 H   0  0  0  0  0  0  0  0  0  0  0  0
   22.8903    1.0250    5.9047 H   0  0  0  0  0  0  0  0  0  0  0  0
   20.6972    1.8663    5.3239 H   0  0  0  0  0  0  0  0  0  0  0  0
   21.8103    1.7623    3.9610 H   0  0  0  0  0  0  0  0  0  0  0  0
   20.8072    3.2296    4.0924 H   0  0  0  0  0  0  0  0  0  0  0  0
   21.0310    4.1698    6.5086 H   0  0  0  0  0  0  0  0  0  0  0  0
   22.2194    5.2426    5.7273 H   0  0  0  0  0  0  0  0  0  0  0  0
   22.7084    4.3562    7.2170 H   0  0  0  0  0  0  0  0  0  0  0  0
  1  2  1  0
  2  3  1  0
  3  4  2  0
  3  5  1  0
  5  6  1  0
  6  7  1  0
  7  8  2  0
  7  9  1  0
  9 10  2  0
 10 11  1  0
 11 12  1  0
 12 13  1  0
 13 14  1  0
 14 15  1  0
 15 16  1  0
 16 17  1  0
 17 18  1  0
 11 19  1  0
 19 20  2  0
 20 21  1  0
 21 22  2  0
 22 23  1  0
 23 24  2  0
  5 25  1  0
 25 26  1  0
 25 27  1  0
 25 28  1  0
 24  9  1  0
 18 13  1  0
 24 19  1  0
  1 29  1  0
  1 30  1  0
  1 31  1  0
  5 32  1  6
  6 33  1  0
 12 34  1  0
 12 35  1  0
 13 36  1  0
 14 37  1  0
 14 38  1  0
 15 39  1  0
 15 40  1  0
 16 41  1  0
 16 42  1  0
 17 43  1  0
 17 44  1  0
 18 45  1  0
 18 46  1  0
 20 47  1  0
 21 48  1  0
 22 49  1  0
 23 50  1  0
 26 51  1  0
 26 52  1  0
 26 53  1  0
 27 54  1  0
 27 55  1  0
 27 56  1  0
 28 57  1  0
 28 58  1  0
 28 59  1  0
M  END
$$$$
