
     RDKit          3D

 49 51  0  0  0  0  0  0  0  0999 V2000
   33.9522    2.1844    4.0330 C   0  0  0  0  0  0  0  0  0  0  0  0
   32.4421    2.2918    3.9966 C   0  0  0  0  0  0  0  0  0  0  0  0
   31.9038    0.9822    3.4318 C   0  0  0  0  0  0  0  0  0  0  0  0
   30.4053    0.9964    3.3551 C   0  0  0  0  0  0  0  0  0  0  0  0
   29.7888    1.1923    4.7258 C   0  0  0  0  0  0  0  0  0  0  0  0
   28.3035    1.1905    4.5491 C   0  0  0  0  0  0  0  0  0  0  0  0
   27.6721   -0.0267    4.6420 C   0  0  0  0  0  0  0  0  0  0  0  0
   26.2813   -0.0925    4.4854 C   0  0  0  0  0  0  0  0  0  0  0  0
   25.7385   -1.3557    4.5951 O   0  0  0  0  0  0  0  0  0  0  0  0
   25.5625    1.0517    4.2419 C   0  0  0  0  0  0  0  0  0  0  0  0
   26.2422    2.2438    4.1583 C   0  0  0  0  0  0  0  0  0  0  0  0
   27.6108    2.3436    4.3075 C   0  0  0  0  0  0  0  0  0  0  0  0
   25.5487    3.4083    3.9151 O   0  0  0  0  0  0  0  0  0  0  0  0
   24.1744    3.5372    3.7336 C   0  0  0  0  0  0  0  0  0  0  0  0
   23.9548    4.1731    2.3762 C   0  0  0  0  0  0  0  0  0  0  0  0
   23.6265    4.4478    4.8153 C   0  0  0  0  0  0  0  0  0  0  0  0
   23.4780    2.2039    3.8347 C   0  0  0  0  0  0  0  0  0  0  0  0
   22.0963    2.2686    3.6613 C   0  0  0  0  0  0  0  0  0  0  0  0
   21.4219    1.0723    3.7461 C   0  0  0  0  0  0  0  0  0  0  0  0
   22.0249   -0.1375    3.9849 C   0  0  0  0  0  0  0  0  0  0  0  0
   21.2277   -1.3763    4.0610 C   0  0  0  0  0  0  0  0  0  0  0  0
   23.4195   -0.1318    4.1501 C   0  0  0  0  0  0  0  0  0  0  0  0
   24.1356    1.0357    4.0743 C   0  0  0  0  0  0  0  0  0  0  0  0
   34.2247    1.1250    4.2311 H   0  0  0  0  0  0  0  0  0  0  0  0
   34.3673    2.4670    3.0568 H   0  0  0  0  0  0  0  0  0  0  0  0
   34.3277    2.8084    4.8832 H   0  0  0  0  0  0  0  0  0  0  0  0
   32.0575    2.4111    5.0299 H   0  0  0  0  0  0  0  0  0  0  0  0
   32.0726    3.1565    3.4110 H   0  0  0  0  0  0  0  0  0  0  0  0
   32.2988    0.8610    2.4033 H   0  0  0  0  0  0  0  0  0  0  0  0
   32.1986    0.1237    4.0551 H   0  0  0  0  0  0  0  0  0  0  0  0
   30.1002    0.0023    2.9637 H   0  0  0  0  0  0  0  0  0  0  0  0
   30.0080    1.7427    2.6616 H   0  0  0  0  0  0  0  0  0  0  0  0
   30.0444    2.1648    5.1631 H   0  0  0  0  0  0  0  0  0  0  0  0
   30.1132    0.4093    5.4410 H   0  0  0  0  0  0  0  0  0  0  0  0
   28.2568   -0.9344    4.8369 H   0  0  0  0  0  0  0  0  0  0  0  0
   26.0820   -1.9801    5.3196 H   0  0  0  0  0  0  0  0  0  0  0  0
   28.1543    3.2781    4.2433 H   0  0  0  0  0  0  0  0  0  0  0  0
   24.8775    4.5372    1.8987 H   0  0  0  0  0  0  0  0  0  0  0  0
   23.3063    5.0886    2.4941 H   0  0  0  0  0  0  0  0  0  0  0  0
   23.4150    3.5154    1.6728 H   0  0  0  0  0  0  0  0  0  0  0  0
   23.0962    3.8606    5.6049 H   0  0  0  0  0  0  0  0  0  0  0  0
   22.8933    5.1634    4.3751 H   0  0  0  0  0  0  0  0  0  0  0  0
   24.4294    5.0096    5.3468 H   0  0  0  0  0  0  0  0  0  0  0  0
   21.5823    3.2031    3.4711 H   0  0  0  0  0  0  0  0  0  0  0  0
   20.3487    1.0662    3.6192 H   0  0  0  0  0  0  0  0  0  0  0  0
   20.2981   -1.2049    4.6774 H   0  0  0  0  0  0  0  0  0  0  0  0
   21.7772   -2.2193    4.4843 H   0  0  0  0  0  0  0  0  0  0  0  0
   20.8204   -1.5655    3.0278 H   0  0  0  0  0  0  0  0  0  0  0  0
   23.8350   -1.1039    4.3338 H   0  0  0  0  0  0  0  0  0  0  0  0
  1  2  1  0
  2  3  1  0
  3  4  1  0
  4  5  1  0
  5  6  1  0
  6  7  2  0
  7  8  1  0
  8  9  1  0
  8 10  2  0
 10 11  1  0
 11 12  2  0
 11 13  1  0
 13 14  1  0
 14 15  1  0
 14 16  1  0
 14 17  1  0
 17 18  2  0
 18 19  1  0
 19 20  2  0
 20 21  1  0
 20 22  1  0
 22 23  2  0
 12  6  1  0
 23 17  1  0
 23 10  1  0
  1 24  1  0
  1 25  1  0
  1 26  1  0
  2 27  1  0
  2 28  1  0
  3 29  1  0
  3 30  1  0
  4 31  1  0
  4 32  1  0
  5 33  1  0
  5 34  1  0
  7 35  1  0
  9 36  1  0
 12 37  1  0
 15 38  1  0
 15 39  1  0
 15 40  1  0
 16 41  1  0
 16 42  1  0
 16 43  1  0
 18 44  1  0
 19 45  1  0
 21 46  1  0
 21 47  1  0
 21 48  1  0
 22 49  1  0
M  END
$$$$
