
     RDKit          3D

 49 51  0  0  0  0  0  0  0  0999 V2000
   32.7384    2.8642    3.4454 C   0  0  0  0  0  0  0  0  0  0  0  0
   33.0092    1.7570    4.4590 C   0  0  0  0  0  0  0  0  0  0  0  0
   32.4789    0.4906    3.8882 C   0  0  0  0  0  0  0  0  0  0  0  0
   31.0027    0.5284    3.5945 C   0  0  0  0  0  0  0  0  0  0  0  0
   30.2408    0.7855    4.8297 C   0  0  0  0  0  0  0  0  0  0  0  0
   28.7721    0.8299    4.6485 C   0  0  0  0  0  0  0  0  0  0  0  0
   28.0746   -0.3455    4.7804 C   0  0  0  0  0  0  0  0  0  0  0  0
   26.6839   -0.3389    4.6152 C   0  0  0  0  0  0  0  0  0  0  0  0
   26.0688   -1.5631    4.7658 O   0  0  0  0  0  0  0  0  0  0  0  0
   26.0377    0.8367    4.3248 C   0  0  0  0  0  0  0  0  0  0  0  0
   26.7717    1.9899    4.2011 C   0  0  0  0  0  0  0  0  0  0  0  0
   28.1573    2.0258    4.3580 C   0  0  0  0  0  0  0  0  0  0  0  0
   26.1520    3.1742    3.9122 O   0  0  0  0  0  0  0  0  0  0  0  0
   24.7901    3.3742    3.7152 C   0  0  0  0  0  0  0  0  0  0  0  0
   24.1950    4.3064    4.7774 C   0  0  0  0  0  0  0  0  0  0  0  0
   24.5609    4.0354    2.3857 C   0  0  0  0  0  0  0  0  0  0  0  0
   24.0185    2.0938    3.8575 C   0  0  0  0  0  0  0  0  0  0  0  0
   22.6439    2.2232    3.6718 C   0  0  0  0  0  0  0  0  0  0  0  0
   21.9016    1.0713    3.7943 C   0  0  0  0  0  0  0  0  0  0  0  0
   22.4329   -0.1619    4.0817 C   0  0  0  0  0  0  0  0  0  0  0  0
   21.5799   -1.3745    4.2021 C   0  0  0  0  0  0  0  0  0  0  0  0
   23.8258   -0.2277    4.2579 C   0  0  0  0  0  0  0  0  0  0  0  0
   24.6190    0.8916    4.1475 C   0  0  0  0  0  0  0  0  0  0  0  0
   33.6373    3.5186    3.3967 H   0  0  0  0  0  0  0  0  0  0  0  0
   32.5766    2.4258    2.4274 H   0  0  0  0  0  0  0  0  0  0  0  0
   31.8236    3.4107    3.7000 H   0  0  0  0  0  0  0  0  0  0  0  0
   32.5208    1.9793    5.4247 H   0  0  0  0  0  0  0  0  0  0  0  0
   34.1102    1.6421    4.5958 H   0  0  0  0  0  0  0  0  0  0  0  0
   32.6645   -0.3860    4.5688 H   0  0  0  0  0  0  0  0  0  0  0  0
   33.0415    0.2424    2.9445 H   0  0  0  0  0  0  0  0  0  0  0  0
   30.7693   -0.4165    3.0813 H   0  0  0  0  0  0  0  0  0  0  0  0
   30.8642    1.4129    2.9130 H   0  0  0  0  0  0  0  0  0  0  0  0
   30.5389    1.7893    5.2461 H   0  0  0  0  0  0  0  0  0  0  0  0
   30.4624    0.0363    5.6144 H   0  0  0  0  0  0  0  0  0  0  0  0
   28.6053   -1.2595    5.0096 H   0  0  0  0  0  0  0  0  0  0  0  0
   26.2989   -2.3949    4.2765 H   0  0  0  0  0  0  0  0  0  0  0  0
   28.7106    2.9511    4.2546 H   0  0  0  0  0  0  0  0  0  0  0  0
   24.7931    4.1659    5.6860 H   0  0  0  0  0  0  0  0  0  0  0  0
   24.1770    5.3380    4.3969 H   0  0  0  0  0  0  0  0  0  0  0  0
   23.1468    4.0194    5.0202 H   0  0  0  0  0  0  0  0  0  0  0  0
   25.2484    3.7059    1.5921 H   0  0  0  0  0  0  0  0  0  0  0  0
   23.5213    4.0185    2.0285 H   0  0  0  0  0  0  0  0  0  0  0  0
   24.7868    5.1271    2.5582 H   0  0  0  0  0  0  0  0  0  0  0  0
   22.1697    3.1630    3.4447 H   0  0  0  0  0  0  0  0  0  0  0  0
   20.8312    1.1219    3.6588 H   0  0  0  0  0  0  0  0  0  0  0  0
   21.5142   -1.9498    3.2640 H   0  0  0  0  0  0  0  0  0  0  0  0
   21.9658   -2.0431    4.9977 H   0  0  0  0  0  0  0  0  0  0  0  0
   20.5557   -1.0707    4.4904 H   0  0  0  0  0  0  0  0  0  0  0  0
   24.1840   -1.2146    4.4800 H   0  0  0  0  0  0  0  0  0  0  0  0
  1  2  1  0
  2  3  1  0
  3  4  1  0
  4  5  1  0
  5  6  1  0
  6  7  2  0
  7  8  1  0
  8  9  1  0
  8 10  2  0
 10 11  1  0
 11 12  2  0
 11 13  1  0
 13 14  1  0
 14 15  1  0
 14 16  1  0
 14 17  1  0
 17 18  2  0
 18 19  1  0
 19 20  2  0
 20 21  1  0
 20 22  1  0
 22 23  2  0
 12  6  1  0
 23 17  1  0
 23 10  1  0
  1 24  1  0
  1 25  1  0
  1 26  1  0
  2 27  1  0
  2 28  1  0
  3 29  1  0
  3 30  1  0
  4 31  1  0
  4 32  1  0
  5 33  1  0
  5 34  1  0
  7 35  1  0
  9 36  1  0
 12 37  1  0
 15 38  1  0
 15 39  1  0
 15 40  1  0
 16 41  1  0
 16 42  1  0
 16 43  1  0
 18 44  1  0
 19 45  1  0
 21 46  1  0
 21 47  1  0
 21 48  1  0
 22 49  1  0
M  END
$$$$
