
     RDKit          3D

 49 51  0  0  0  0  0  0  0  0999 V2000
   33.9774    2.0163    3.6500 C   0  0  0  0  0  0  0  0  0  0  0  0
   32.4602    2.1741    3.7359 C   0  0  0  0  0  0  0  0  0  0  0  0
   31.9641    1.0302    4.5631 C   0  0  0  0  0  0  0  0  0  0  0  0
   30.4621    1.0246    4.7564 C   0  0  0  0  0  0  0  0  0  0  0  0
   29.7164    0.9374    3.4699 C   0  0  0  0  0  0  0  0  0  0  0  0
   28.2654    0.9260    3.5581 C   0  0  0  0  0  0  0  0  0  0  0  0
   27.6010   -0.2699    3.6719 C   0  0  0  0  0  0  0  0  0  0  0  0
   26.2054   -0.2871    3.7570 C   0  0  0  0  0  0  0  0  0  0  0  0
   25.6354   -1.5360    3.8684 O   0  0  0  0  0  0  0  0  0  0  0  0
   25.5136    0.8967    3.7256 C   0  0  0  0  0  0  0  0  0  0  0  0
   26.1782    2.0970    3.6116 C   0  0  0  0  0  0  0  0  0  0  0  0
   27.5763    2.1189    3.5260 C   0  0  0  0  0  0  0  0  0  0  0  0
   25.5621    3.3316    3.5725 O   0  0  0  0  0  0  0  0  0  0  0  0
   24.1673    3.4497    3.6493 C   0  0  0  0  0  0  0  0  0  0  0  0
   23.7968    4.2461    4.9006 C   0  0  0  0  0  0  0  0  0  0  0  0
   23.6493    4.2587    2.4760 C   0  0  0  0  0  0  0  0  0  0  0  0
   23.4547    2.1535    3.7722 C   0  0  0  0  0  0  0  0  0  0  0  0
   22.0683    2.2301    3.8509 C   0  0  0  0  0  0  0  0  0  0  0  0
   21.3430    1.0670    3.9664 C   0  0  0  0  0  0  0  0  0  0  0  0
   21.9249   -0.1681    4.0075 C   0  0  0  0  0  0  0  0  0  0  0  0
   21.1127   -1.4071    4.1329 C   0  0  0  0  0  0  0  0  0  0  0  0
   23.3262   -0.2172    3.9261 C   0  0  0  0  0  0  0  0  0  0  0  0
   24.0725    0.9319    3.8103 C   0  0  0  0  0  0  0  0  0  0  0  0
   34.4024    1.7072    4.6223 H   0  0  0  0  0  0  0  0  0  0  0  0
   34.2264    1.1777    2.9357 H   0  0  0  0  0  0  0  0  0  0  0  0
   34.4245    2.9669    3.2951 H   0  0  0  0  0  0  0  0  0  0  0  0
   32.0115    2.1218    2.7317 H   0  0  0  0  0  0  0  0  0  0  0  0
   32.2326    3.1160    4.2488 H   0  0  0  0  0  0  0  0  0  0  0  0
   32.4082    1.1545    5.5916 H   0  0  0  0  0  0  0  0  0  0  0  0
   32.3289    0.0466    4.2140 H   0  0  0  0  0  0  0  0  0  0  0  0
   30.2107    2.0216    5.2184 H   0  0  0  0  0  0  0  0  0  0  0  0
   30.2423    0.2549    5.4842 H   0  0  0  0  0  0  0  0  0  0  0  0
   30.0385   -0.0027    2.9717 H   0  0  0  0  0  0  0  0  0  0  0  0
   30.0069    1.7468    2.7708 H   0  0  0  0  0  0  0  0  0  0  0  0
   28.1755   -1.1869    3.6938 H   0  0  0  0  0  0  0  0  0  0  0  0
   25.9422   -2.1324    4.6419 H   0  0  0  0  0  0  0  0  0  0  0  0
   28.1124    3.0712    3.4349 H   0  0  0  0  0  0  0  0  0  0  0  0
   24.3652    5.2152    4.9531 H   0  0  0  0  0  0  0  0  0  0  0  0
   24.0254    3.5908    5.7724 H   0  0  0  0  0  0  0  0  0  0  0  0
   22.7157    4.4537    4.8964 H   0  0  0  0  0  0  0  0  0  0  0  0
   22.5744    4.5056    2.6563 H   0  0  0  0  0  0  0  0  0  0  0  0
   23.8133    3.7340    1.5052 H   0  0  0  0  0  0  0  0  0  0  0  0
   24.2022    5.2407    2.5267 H   0  0  0  0  0  0  0  0  0  0  0  0
   21.5362    3.1746    3.8247 H   0  0  0  0  0  0  0  0  0  0  0  0
   20.2646    1.1106    4.0287 H   0  0  0  0  0  0  0  0  0  0  0  0
   20.7502   -1.4752    5.1942 H   0  0  0  0  0  0  0  0  0  0  0  0
   21.7607   -2.2964    3.9270 H   0  0  0  0  0  0  0  0  0  0  0  0
   20.2406   -1.4238    3.4713 H   0  0  0  0  0  0  0  0  0  0  0  0
   23.7272   -1.2107    3.9633 H   0  0  0  0  0  0  0  0  0  0  0  0
  1  2  1  0
  2  3  1  0
  3  4  1  0
  4  5  1  0
  5  6  1  0
  6  7  2  0
  7  8  1  0
  8  9  1  0
  8 10  2  0
 10 11  1  0
 11 12  2  0
 11 13  1  0
 13 14  1  0
 14 15  1  0
 14 16  1  0
 14 17  1  0
 17 18  2  0
 18 19  1  0
 19 20  2  0
 20 21  1  0
 20 22  1  0
 22 23  2  0
 12  6  1  0
 23 17  1  0
 23 10  1  0
  1 24  1  0
  1 25  1  0
  1 26  1  0
  2 27  1  0
  2 28  1  0
  3 29  1  0
  3 30  1  0
  4 31  1  0
  4 32  1  0
  5 33  1  0
  5 34  1  0
  7 35  1  0
  9 36  1  0
 12 37  1  0
 15 38  1  0
 15 39  1  0
 15 40  1  0
 16 41  1  0
 16 42  1  0
 16 43  1  0
 18 44  1  0
 19 45  1  0
 21 46  1  0
 21 47  1  0
 21 48  1  0
 22 49  1  0
M  END
$$$$
