
     RDKit          3D

 49 51  0  0  0  0  0  0  0  0999 V2000
   32.6420    2.2322    2.2420 C   0  0  0  0  0  0  0  0  0  0  0  0
   32.9715    1.0457    3.1058 C   0  0  0  0  0  0  0  0  0  0  0  0
   32.1444    1.1067    4.3702 C   0  0  0  0  0  0  0  0  0  0  0  0
   30.6785    1.0789    3.9442 C   0  0  0  0  0  0  0  0  0  0  0  0
   29.8379    1.1396    5.1995 C   0  0  0  0  0  0  0  0  0  0  0  0
   28.3970    1.1155    4.8419 C   0  0  0  0  0  0  0  0  0  0  0  0
   27.7630   -0.0958    4.7424 C   0  0  0  0  0  0  0  0  0  0  0  0
   26.4040   -0.1586    4.4070 C   0  0  0  0  0  0  0  0  0  0  0  0
   25.8815   -1.4348    4.3384 O   0  0  0  0  0  0  0  0  0  0  0  0
   25.7220    0.9933    4.1817 C   0  0  0  0  0  0  0  0  0  0  0  0
   26.3356    2.2400    4.2745 C   0  0  0  0  0  0  0  0  0  0  0  0
   27.6850    2.2695    4.6090 C   0  0  0  0  0  0  0  0  0  0  0  0
   25.7152    3.4300    4.0627 O   0  0  0  0  0  0  0  0  0  0  0  0
   24.3598    3.5059    3.7215 C   0  0  0  0  0  0  0  0  0  0  0  0
   24.1411    4.1839    2.3833 C   0  0  0  0  0  0  0  0  0  0  0  0
   23.7027    4.3288    4.8406 C   0  0  0  0  0  0  0  0  0  0  0  0
   23.7003    2.1824    3.6211 C   0  0  0  0  0  0  0  0  0  0  0  0
   22.3457    2.2094    3.2825 C   0  0  0  0  0  0  0  0  0  0  0  0
   21.6586    1.0277    3.1683 C   0  0  0  0  0  0  0  0  0  0  0  0
   22.2491   -0.1940    3.3741 C   0  0  0  0  0  0  0  0  0  0  0  0
   21.4886   -1.4652    3.2460 C   0  0  0  0  0  0  0  0  0  0  0  0
   23.6126   -0.1881    3.7134 C   0  0  0  0  0  0  0  0  0  0  0  0
   24.3248    0.9821    3.8343 C   0  0  0  0  0  0  0  0  0  0  0  0
   32.3280    3.1271    2.8158 H   0  0  0  0  0  0  0  0  0  0  0  0
   31.8710    1.9883    1.4863 H   0  0  0  0  0  0  0  0  0  0  0  0
   33.5967    2.5416    1.7364 H   0  0  0  0  0  0  0  0  0  0  0  0
   34.0538    0.9377    3.3031 H   0  0  0  0  0  0  0  0  0  0  0  0
   32.6033    0.1351    2.5500 H   0  0  0  0  0  0  0  0  0  0  0  0
   32.3682    2.0233    4.9518 H   0  0  0  0  0  0  0  0  0  0  0  0
   32.3682    0.2463    5.0325 H   0  0  0  0  0  0  0  0  0  0  0  0
   30.4437    0.1083    3.4696 H   0  0  0  0  0  0  0  0  0  0  0  0
   30.5224    1.9194    3.2656 H   0  0  0  0  0  0  0  0  0  0  0  0
   30.0504    0.2341    5.7927 H   0  0  0  0  0  0  0  0  0  0  0  0
   30.1027    2.0657    5.7657 H   0  0  0  0  0  0  0  0  0  0  0  0
   28.3413   -1.0008    4.9300 H   0  0  0  0  0  0  0  0  0  0  0  0
   26.1115   -2.1867    5.0056 H   0  0  0  0  0  0  0  0  0  0  0  0
   28.1956    3.2117    4.6908 H   0  0  0  0  0  0  0  0  0  0  0  0
   23.7727    3.4865    1.5997 H   0  0  0  0  0  0  0  0  0  0  0  0
   25.0885    4.6035    1.9850 H   0  0  0  0  0  0  0  0  0  0  0  0
   23.3380    4.9312    2.5255 H   0  0  0  0  0  0  0  0  0  0  0  0
   22.6392    4.5065    4.6242 H   0  0  0  0  0  0  0  0  0  0  0  0
   24.2934    5.2663    4.8992 H   0  0  0  0  0  0  0  0  0  0  0  0
   23.8860    3.7782    5.7739 H   0  0  0  0  0  0  0  0  0  0  0  0
   21.8214    3.1416    3.1070 H   0  0  0  0  0  0  0  0  0  0  0  0
   20.6120    1.0285    2.9076 H   0  0  0  0  0  0  0  0  0  0  0  0
   20.8786   -1.4704    2.3105 H   0  0  0  0  0  0  0  0  0  0  0  0
   22.1741   -2.3223    3.1620 H   0  0  0  0  0  0  0  0  0  0  0  0
   20.7700   -1.5695    4.0851 H   0  0  0  0  0  0  0  0  0  0  0  0
   24.0232   -1.1673    3.8628 H   0  0  0  0  0  0  0  0  0  0  0  0
  1  2  1  0
  2  3  1  0
  3  4  1  0
  4  5  1  0
  5  6  1  0
  6  7  2  0
  7  8  1  0
  8  9  1  0
  8 10  2  0
 10 11  1  0
 11 12  2  0
 11 13  1  0
 13 14  1  0
 14 15  1  0
 14 16  1  0
 14 17  1  0
 17 18  2  0
 18 19  1  0
 19 20  2  0
 20 21  1  0
 20 22  1  0
 22 23  2  0
 12  6  1  0
 23 17  1  0
 23 10  1  0
  1 24  1  0
  1 25  1  0
  1 26  1  0
  2 27  1  0
  2 28  1  0
  3 29  1  0
  3 30  1  0
  4 31  1  0
  4 32  1  0
  5 33  1  0
  5 34  1  0
  7 35  1  0
  9 36  1  0
 12 37  1  0
 15 38  1  0
 15 39  1  0
 15 40  1  0
 16 41  1  0
 16 42  1  0
 16 43  1  0
 18 44  1  0
 19 45  1  0
 21 46  1  0
 21 47  1  0
 21 48  1  0
 22 49  1  0
M  END
$$$$
