
     RDKit          3D

 49 51  0  0  0  0  0  0  0  0999 V2000
   32.7739    2.9929    3.4659 C   0  0  0  0  0  0  0  0  0  0  0  0
   33.0321    1.8204    4.3698 C   0  0  0  0  0  0  0  0  0  0  0  0
   32.4385    0.5562    3.8433 C   0  0  0  0  0  0  0  0  0  0  0  0
   30.9443    0.6045    3.6663 C   0  0  0  0  0  0  0  0  0  0  0  0
   30.1752    0.8737    4.9169 C   0  0  0  0  0  0  0  0  0  0  0  0
   28.7142    0.9144    4.7075 C   0  0  0  0  0  0  0  0  0  0  0  0
   28.0066   -0.2552    4.8307 C   0  0  0  0  0  0  0  0  0  0  0  0
   26.6260   -0.2652    4.6419 C   0  0  0  0  0  0  0  0  0  0  0  0
   26.0072   -1.4854    4.7869 O   0  0  0  0  0  0  0  0  0  0  0  0
   25.9913    0.9100    4.3324 C   0  0  0  0  0  0  0  0  0  0  0  0
   26.7241    2.0588    4.2167 C   0  0  0  0  0  0  0  0  0  0  0  0
   28.1048    2.1063    4.3984 C   0  0  0  0  0  0  0  0  0  0  0  0
   26.1105    3.2584    3.9055 O   0  0  0  0  0  0  0  0  0  0  0  0
   24.7471    3.4559    3.6799 C   0  0  0  0  0  0  0  0  0  0  0  0
   24.5406    4.0948    2.3271 C   0  0  0  0  0  0  0  0  0  0  0  0
   24.2403    4.3721    4.7732 C   0  0  0  0  0  0  0  0  0  0  0  0
   24.0097    2.1862    3.8178 C   0  0  0  0  0  0  0  0  0  0  0  0
   22.6364    2.2429    3.6175 C   0  0  0  0  0  0  0  0  0  0  0  0
   21.8414    1.1249    3.7188 C   0  0  0  0  0  0  0  0  0  0  0  0
   22.3856   -0.0840    4.0221 C   0  0  0  0  0  0  0  0  0  0  0  0
   21.5278   -1.2866    4.1307 C   0  0  0  0  0  0  0  0  0  0  0  0
   23.7752   -0.1464    4.2258 C   0  0  0  0  0  0  0  0  0  0  0  0
   24.5702    0.9731    4.1243 C   0  0  0  0  0  0  0  0  0  0  0  0
   33.4696    2.9589    2.5841 H   0  0  0  0  0  0  0  0  0  0  0  0
   31.7555    2.9826    3.0823 H   0  0  0  0  0  0  0  0  0  0  0  0
   32.9948    3.9084    4.0789 H   0  0  0  0  0  0  0  0  0  0  0  0
   32.7167    2.0668    5.3995 H   0  0  0  0  0  0  0  0  0  0  0  0
   34.1286    1.6656    4.4292 H   0  0  0  0  0  0  0  0  0  0  0  0
   32.7654   -0.3170    4.4193 H   0  0  0  0  0  0  0  0  0  0  0  0
   32.8511    0.4227    2.8041 H   0  0  0  0  0  0  0  0  0  0  0  0
   30.6305    1.2944    2.8693 H   0  0  0  0  0  0  0  0  0  0  0  0
   30.6509   -0.4221    3.3072 H   0  0  0  0  0  0  0  0  0  0  0  0
   30.3778    0.0943    5.6912 H   0  0  0  0  0  0  0  0  0  0  0  0
   30.4896    1.8837    5.2706 H   0  0  0  0  0  0  0  0  0  0  0  0
   28.5418   -1.1820    5.0795 H   0  0  0  0  0  0  0  0  0  0  0  0
   26.3386   -2.3699    4.4858 H   0  0  0  0  0  0  0  0  0  0  0  0
   28.6837    3.0000    4.3095 H   0  0  0  0  0  0  0  0  0  0  0  0
   25.0871    5.0769    2.3859 H   0  0  0  0  0  0  0  0  0  0  0  0
   23.4929    4.3421    2.1634 H   0  0  0  0  0  0  0  0  0  0  0  0
   25.0332    3.5246    1.5377 H   0  0  0  0  0  0  0  0  0  0  0  0
   23.1617    4.6068    4.6586 H   0  0  0  0  0  0  0  0  0  0  0  0
   24.3897    3.8337    5.7396 H   0  0  0  0  0  0  0  0  0  0  0  0
   24.7904    5.3142    4.8587 H   0  0  0  0  0  0  0  0  0  0  0  0
   22.1467    3.1733    3.3742 H   0  0  0  0  0  0  0  0  0  0  0  0
   20.7909    1.1950    3.5604 H   0  0  0  0  0  0  0  0  0  0  0  0
   22.0838   -2.0573    4.7158 H   0  0  0  0  0  0  0  0  0  0  0  0
   21.4315   -1.7166    3.0914 H   0  0  0  0  0  0  0  0  0  0  0  0
   20.5379   -1.0418    4.5653 H   0  0  0  0  0  0  0  0  0  0  0  0
   24.1286   -1.1324    4.4608 H   0  0  0  0  0  0  0  0  0  0  0  0
  1  2  1  0
  2  3  1  0
  3  4  1  0
  4  5  1  0
  5  6  1  0
  6  7  2  0
  7  8  1  0
  8  9  1  0
  8 10  2  0
 10 11  1  0
 11 12  2  0
 11 13  1  0
 13 14  1  0
 14 15  1  0
 14 16  1  0
 14 17  1  0
 17 18  2  0
 18 19  1  0
 19 20  2  0
 20 21  1  0
 20 22  1  0
 22 23  2  0
 12  6  1  0
 23 17  1  0
 23 10  1  0
  1 24  1  0
  1 25  1  0
  1 26  1  0
  2 27  1  0
  2 28  1  0
  3 29  1  0
  3 30  1  0
  4 31  1  0
  4 32  1  0
  5 33  1  0
  5 34  1  0
  7 35  1  0
  9 36  1  0
 12 37  1  0
 15 38  1  0
 15 39  1  0
 15 40  1  0
 16 41  1  0
 16 42  1  0
 16 43  1  0
 18 44  1  0
 19 45  1  0
 21 46  1  0
 21 47  1  0
 21 48  1  0
 22 49  1  0
M  END
$$$$
