
     RDKit          3D

 68 70  0  0  0  0  0  0  0  0999 V2000
   34.0770    1.0480    5.3554 C   0  0  0  0  0  0  0  0  0  0  0  0
   32.9037    1.8244    4.8159 C   0  0  0  0  0  0  0  0  0  0  0  0
   32.9935    3.3153    5.0658 C   0  0  0  0  0  0  0  0  0  0  0  0
   31.6451    3.9114    4.4861 C   0  0  0  0  0  0  0  0  0  0  0  0
   30.5469    3.4932    5.3954 C   0  0  0  0  0  0  0  0  0  0  0  0
   29.1801    3.6526    4.9130 C   0  0  0  0  0  0  0  0  0  0  0  0
   28.5216    4.9039    4.5003 C   0  0  0  0  0  0  0  0  0  0  0  0
   28.4903    5.9741    5.5723 C   0  0  0  0  0  0  0  0  0  0  0  0
   28.9440    5.4798    3.2019 C   0  0  0  0  0  0  0  0  0  0  0  0
   27.0634    4.4069    4.3434 C   0  0  0  0  0  0  0  0  0  0  0  0
   26.8417    3.1431    3.8604 C   0  0  0  0  0  0  0  0  0  0  0  0
   25.5624    2.5713    3.9737 C   0  0  0  0  0  0  0  0  0  0  0  0
   25.3754    1.2686    3.3218 C   0  0  0  0  0  0  0  0  0  0  0  0
   24.5123    3.2179    4.5548 C   0  0  0  0  0  0  0  0  0  0  0  0
   24.7613    4.5296    5.0427 C   0  0  0  0  0  0  0  0  0  0  0  0
   26.0412    5.0725    4.9097 C   0  0  0  0  0  0  0  0  0  0  0  0
   23.8507    5.3437    5.6930 O   0  0  0  0  0  0  0  0  0  0  0  0
   22.5483    4.8557    5.9825 C   0  0  0  0  0  0  0  0  0  0  0  0
   22.2563    4.9501    7.4207 C   0  0  0  0  0  0  0  0  0  0  0  0
   21.6990    6.0212    5.3565 C   0  0  0  0  0  0  0  0  0  0  0  0
   22.2491    3.6686    5.2185 C   0  0  2  0  0  0  0  0  0  0  0  0
   20.9083    3.1509    5.7236 C   0  0  0  0  0  0  0  0  0  0  0  0
   20.5342    1.8725    5.2555 C   0  0  0  0  0  0  0  0  0  0  0  0
   21.3417    1.0679    4.5913 C   0  0  0  0  0  0  0  0  0  0  0  0
   20.8872   -0.2742    4.1617 C   0  0  0  0  0  0  0  0  0  0  0  0
   19.5712   -0.5321    4.5662 O   0  0  0  0  0  0  0  0  0  0  0  0
   22.6708    1.5539    4.1103 C   0  0  0  0  0  0  0  0  0  0  0  0
   23.2346    2.5724    5.0243 C   0  0  1  0  0  0  0  0  0  0  0  0
   34.1742    1.2870    6.4156 H   0  0  0  0  0  0  0  0  0  0  0  0
   33.8134   -0.0689    5.2956 H   0  0  0  0  0  0  0  0  0  0  0  0
   34.9523    1.2481    4.7273 H   0  0  0  0  0  0  0  0  0  0  0  0
   31.9728    1.3610    5.1380 H   0  0  0  0  0  0  0  0  0  0  0  0
   32.9562    1.6577    3.6996 H   0  0  0  0  0  0  0  0  0  0  0  0
   32.9027    3.4905    6.1591 H   0  0  0  0  0  0  0  0  0  0  0  0
   33.8026    3.8248    4.5862 H   0  0  0  0  0  0  0  0  0  0  0  0
   31.5950    3.4482    3.4806 H   0  0  0  0  0  0  0  0  0  0  0  0
   31.8012    4.9689    4.3660 H   0  0  0  0  0  0  0  0  0  0  0  0
   30.6646    2.4001    5.6901 H   0  0  0  0  0  0  0  0  0  0  0  0
   30.6922    3.9925    6.4384 H   0  0  0  0  0  0  0  0  0  0  0  0
   28.4764    3.0470    5.6251 H   0  0  0  0  0  0  0  0  0  0  0  0
   29.1462    2.9343    4.0090 H   0  0  0  0  0  0  0  0  0  0  0  0
   28.0452    6.8817    5.1109 H   0  0  0  0  0  0  0  0  0  0  0  0
   29.5132    6.1988    5.8259 H   0  0  0  0  0  0  0  0  0  0  0  0
   27.8377    5.6467    6.4144 H   0  0  0  0  0  0  0  0  0  0  0  0
   29.6873    4.7924    2.6998 H   0  0  0  0  0  0  0  0  0  0  0  0
   28.1652    5.6423    2.4252 H   0  0  0  0  0  0  0  0  0  0  0  0
   29.4164    6.4971    3.3075 H   0  0  0  0  0  0  0  0  0  0  0  0
   27.5793    2.5691    3.3694 H   0  0  0  0  0  0  0  0  0  0  0  0
   26.2792    1.1609    2.5746 H   0  0  0  0  0  0  0  0  0  0  0  0
   24.5741    1.2233    2.5592 H   0  0  0  0  0  0  0  0  0  0  0  0
   25.5674    0.3629    3.8976 H   0  0  0  0  0  0  0  0  0  0  0  0
   26.2202    6.0538    5.3127 H   0  0  0  0  0  0  0  0  0  0  0  0
   22.8139    5.8209    7.8932 H   0  0  0  0  0  0  0  0  0  0  0  0
   21.1969    5.2010    7.6707 H   0  0  0  0  0  0  0  0  0  0  0  0
   22.5942    4.0903    8.0436 H   0  0  0  0  0  0  0  0  0  0  0  0
   22.0209    6.9155    5.8853 H   0  0  0  0  0  0  0  0  0  0  0  0
   22.0209    6.0989    4.3001 H   0  0  0  0  0  0  0  0  0  0  0  0
   20.6280    5.8202    5.4687 H   0  0  0  0  0  0  0  0  0  0  0  0
   22.0137    4.0023    4.1535 H   0  0  0  0  0  0  0  0  0  0  0  0
   20.1440    3.8990    5.3118 H   0  0  0  0  0  0  0  0  0  0  0  0
   20.7972    3.2126    6.8082 H   0  0  0  0  0  0  0  0  0  0  0  0
   19.5093    1.4569    5.4958 H   0  0  0  0  0  0  0  0  0  0  0  0
   21.5938   -1.0629    4.5364 H   0  0  0  0  0  0  0  0  0  0  0  0
   20.8680   -0.2796    3.0523 H   0  0  0  0  0  0  0  0  0  0  0  0
   19.4195   -1.5084    4.5189 H   0  0  0  0  0  0  0  0  0  0  0  0
   22.4450    1.9200    3.0723 H   0  0  0  0  0  0  0  0  0  0  0  0
   23.2209    0.5941    4.1327 H   0  0  0  0  0  0  0  0  0  0  0  0
   23.4434    2.0677    5.9666 H   0  0  0  0  0  0  0  0  0  0  0  0
  1  2  1  0
  2  3  1  0
  3  4  1  0
  4  5  1  0
  5  6  1  0
  6  7  1  0
  7  8  1  0
  7  9  1  0
  7 10  1  0
 10 11  2  0
 11 12  1  0
 12 13  1  0
 12 14  2  0
 14 15  1  0
 15 16  2  0
 15 17  1  0
 17 18  1  0
 18 19  1  0
 18 20  1  0
 18 21  1  0
 21 22  1  0
 22 23  1  0
 23 24  2  0
 24 25  1  0
 25 26  1  0
 24 27  1  0
 27 28  1  0
 16 10  1  0
 28 21  1  0
 28 14  1  0
  1 29  1  0
  1 30  1  0
  1 31  1  0
  2 32  1  0
  2 33  1  0
  3 34  1  0
  3 35  1  0
  4 36  1  0
  4 37  1  0
  5 38  1  0
  5 39  1  0
  6 40  1  0
  6 41  1  0
  8 42  1  0
  8 43  1  0
  8 44  1  0
  9 45  1  0
  9 46  1  0
  9 47  1  0
 11 48  1  0
 13 49  1  0
 13 50  1  0
 13 51  1  0
 16 52  1  0
 19 53  1  0
 19 54  1  0
 19 55  1  0
 20 56  1  0
 20 57  1  0
 20 58  1  0
 21 59  1  6
 22 60  1  0
 22 61  1  0
 23 62  1  0
 25 63  1  0
 25 64  1  0
 26 65  1  0
 27 66  1  0
 27 67  1  0
 28 68  1  1
M  END
$$$$
