
     RDKit          3D

 68 70  0  0  0  0  0  0  0  0999 V2000
   34.4184    2.6146    5.3413 C   0  0  0  0  0  0  0  0  0  0  0  0
   33.7092    3.4464    6.2992 C   0  0  0  0  0  0  0  0  0  0  0  0
   32.8430    4.5609    5.7984 C   0  0  0  0  0  0  0  0  0  0  0  0
   31.6945    4.2429    4.8793 C   0  0  0  0  0  0  0  0  0  0  0  0
   30.7708    3.2137    5.4485 C   0  0  0  0  0  0  0  0  0  0  0  0
   29.4535    3.1389    4.7374 C   0  0  0  0  0  0  0  0  0  0  0  0
   28.6143    1.9886    5.3093 C   0  0  0  0  0  0  0  0  0  0  0  0
   28.5863    2.2088    6.8470 C   0  0  0  0  0  0  0  0  0  0  0  0
   29.2464    0.7033    5.0022 C   0  0  0  0  0  0  0  0  0  0  0  0
   27.1699    2.1021    4.9383 C   0  0  0  0  0  0  0  0  0  0  0  0
   26.5377    1.4263    3.9702 C   0  0  0  0  0  0  0  0  0  0  0  0
   25.1975    1.5158    3.8191 C   0  0  0  0  0  0  0  0  0  0  0  0
   24.5305    0.8434    2.6497 C   0  0  0  0  0  0  0  0  0  0  0  0
   24.3279    2.2798    4.5983 C   0  0  0  0  0  0  0  0  0  0  0  0
   25.0217    2.9907    5.6070 C   0  0  0  0  0  0  0  0  0  0  0  0
   26.3746    2.8937    5.7519 C   0  0  0  0  0  0  0  0  0  0  0  0
   24.3418    3.7948    6.5099 O   0  0  0  0  0  0  0  0  0  0  0  0
   22.9219    3.9060    6.4770 C   0  0  0  0  0  0  0  0  0  0  0  0
   22.5894    5.4114    6.7859 C   0  0  0  0  0  0  0  0  0  0  0  0
   22.3804    3.1752    7.6936 C   0  0  0  0  0  0  0  0  0  0  0  0
   22.3652    3.5679    5.1936 C   0  0  2  0  0  0  0  0  0  0  0  0
   20.9875    3.5502    4.7214 C   0  0  0  0  0  0  0  0  0  0  0  0
   20.1532    2.4950    5.3256 C   0  0  0  0  0  0  0  0  0  0  0  0
   20.6653    1.3002    4.9279 C   0  0  0  0  0  0  0  0  0  0  0  0
   20.0567    0.0038    5.3486 C   0  0  0  0  0  0  0  0  0  0  0  0
   18.9503    0.2119    6.1658 O   0  0  0  0  0  0  0  0  0  0  0  0
   21.9851    1.2697    4.1379 C   0  0  0  0  0  0  0  0  0  0  0  0
   22.9178    2.1121    4.7786 C   0  0  1  0  0  0  0  0  0  0  0  0
   34.5872    3.0046    4.3520 H   0  0  0  0  0  0  0  0  0  0  0  0
   33.9013    1.5865    5.2185 H   0  0  0  0  0  0  0  0  0  0  0  0
   35.4212    2.2692    5.7781 H   0  0  0  0  0  0  0  0  0  0  0  0
   33.0787    2.7816    6.9417 H   0  0  0  0  0  0  0  0  0  0  0  0
   34.4522    3.9598    7.0098 H   0  0  0  0  0  0  0  0  0  0  0  0
   33.5070    5.2672    5.2124 H   0  0  0  0  0  0  0  0  0  0  0  0
   32.4553    5.1248    6.7052 H   0  0  0  0  0  0  0  0  0  0  0  0
   31.1248    5.1840    4.6876 H   0  0  0  0  0  0  0  0  0  0  0  0
   32.1284    3.9197    3.8980 H   0  0  0  0  0  0  0  0  0  0  0  0
   30.6452    3.3893    6.5298 H   0  0  0  0  0  0  0  0  0  0  0  0
   31.3231    2.2229    5.3419 H   0  0  0  0  0  0  0  0  0  0  0  0
   29.6763    2.8713    3.6921 H   0  0  0  0  0  0  0  0  0  0  0  0
   28.9205    4.1006    4.7875 H   0  0  0  0  0  0  0  0  0  0  0  0
   27.6556    1.7434    7.2313 H   0  0  0  0  0  0  0  0  0  0  0  0
   28.7334    3.2503    7.1035 H   0  0  0  0  0  0  0  0  0  0  0  0
   29.4004    1.5853    7.2911 H   0  0  0  0  0  0  0  0  0  0  0  0
   30.2536    0.7523    4.5328 H   0  0  0  0  0  0  0  0  0  0  0  0
   28.6639    0.0873    4.2700 H   0  0  0  0  0  0  0  0  0  0  0  0
   29.3492   -0.0033    5.8878 H   0  0  0  0  0  0  0  0  0  0  0  0
   27.0956    0.7723    3.2482 H   0  0  0  0  0  0  0  0  0  0  0  0
   24.3094   -0.1979    2.7818 H   0  0  0  0  0  0  0  0  0  0  0  0
   23.7371    1.4894    2.2149 H   0  0  0  0  0  0  0  0  0  0  0  0
   25.3025    0.8603    1.8165 H   0  0  0  0  0  0  0  0  0  0  0  0
   26.8305    3.4711    6.5283 H   0  0  0  0  0  0  0  0  0  0  0  0
   21.5229    5.4842    6.7173 H   0  0  0  0  0  0  0  0  0  0  0  0
   22.8685    5.5453    7.8497 H   0  0  0  0  0  0  0  0  0  0  0  0
   23.1533    6.0588    6.1330 H   0  0  0  0  0  0  0  0  0  0  0  0
   21.2795    3.0304    7.6645 H   0  0  0  0  0  0  0  0  0  0  0  0
   22.5569    3.7865    8.6505 H   0  0  0  0  0  0  0  0  0  0  0  0
   22.8049    2.1664    7.8631 H   0  0  0  0  0  0  0  0  0  0  0  0
   23.0256    4.1690    4.4169 H   0  0  0  0  0  0  0  0  0  0  0  0
   20.4467    4.5238    4.7525 H   0  0  0  0  0  0  0  0  0  0  0  0
   21.0084    3.3422    3.6120 H   0  0  0  0  0  0  0  0  0  0  0  0
   19.2925    2.6121    5.9505 H   0  0  0  0  0  0  0  0  0  0  0  0
   20.8025   -0.5481    6.0128 H   0  0  0  0  0  0  0  0  0  0  0  0
   19.8061   -0.6503    4.5099 H   0  0  0  0  0  0  0  0  0  0  0  0
   19.2888    0.5203    7.0677 H   0  0  0  0  0  0  0  0  0  0  0  0
   21.5624    1.5108    3.1432 H   0  0  0  0  0  0  0  0  0  0  0  0
   22.3373    0.1948    4.1689 H   0  0  0  0  0  0  0  0  0  0  0  0
   22.9004    1.6696    5.8985 H   0  0  0  0  0  0  0  0  0  0  0  0
  1  2  1  0
  2  3  1  0
  3  4  1  0
  4  5  1  0
  5  6  1  0
  6  7  1  0
  7  8  1  0
  7  9  1  0
  7 10  1  0
 10 11  2  0
 11 12  1  0
 12 13  1  0
 12 14  2  0
 14 15  1  0
 15 16  2  0
 15 17  1  0
 17 18  1  0
 18 19  1  0
 18 20  1  0
 18 21  1  0
 21 22  1  0
 22 23  1  0
 23 24  2  0
 24 25  1  0
 25 26  1  0
 24 27  1  0
 27 28  1  0
 16 10  1  0
 28 21  1  0
 28 14  1  0
  1 29  1  0
  1 30  1  0
  1 31  1  0
  2 32  1  0
  2 33  1  0
  3 34  1  0
  3 35  1  0
  4 36  1  0
  4 37  1  0
  5 38  1  0
  5 39  1  0
  6 40  1  0
  6 41  1  0
  8 42  1  0
  8 43  1  0
  8 44  1  0
  9 45  1  0
  9 46  1  0
  9 47  1  0
 11 48  1  0
 13 49  1  0
 13 50  1  0
 13 51  1  0
 16 52  1  0
 19 53  1  0
 19 54  1  0
 19 55  1  0
 20 56  1  0
 20 57  1  0
 20 58  1  0
 21 59  1  6
 22 60  1  0
 22 61  1  0
 23 62  1  0
 25 63  1  0
 25 64  1  0
 26 65  1  0
 27 66  1  0
 27 67  1  0
 28 68  1  1
M  END
$$$$
