
     RDKit          3D

 68 70  0  0  0  0  0  0  0  0999 V2000
   33.6225    1.1317    4.8170 C   0  0  0  0  0  0  0  0  0  0  0  0
   33.9793    2.5281    4.4182 C   0  0  0  0  0  0  0  0  0  0  0  0
   33.3493    3.6042    5.2192 C   0  0  0  0  0  0  0  0  0  0  0  0
   31.8396    3.8097    5.1279 C   0  0  0  0  0  0  0  0  0  0  0  0
   30.9823    2.6686    5.3768 C   0  0  0  0  0  0  0  0  0  0  0  0
   29.5314    2.8631    5.4820 C   0  0  0  0  0  0  0  0  0  0  0  0
   28.7460    3.4896    4.4362 C   0  0  0  0  0  0  0  0  0  0  0  0
   28.7993    2.9517    3.0341 C   0  0  0  0  0  0  0  0  0  0  0  0
   28.7977    4.9853    4.4726 C   0  0  0  0  0  0  0  0  0  0  0  0
   27.2359    3.1860    4.7962 C   0  0  0  0  0  0  0  0  0  0  0  0
   26.9547    1.8500    4.9714 C   0  0  0  0  0  0  0  0  0  0  0  0
   25.6260    1.4876    5.2788 C   0  0  0  0  0  0  0  0  0  0  0  0
   25.4152    0.0706    5.5901 C   0  0  0  0  0  0  0  0  0  0  0  0
   24.7254    2.4993    5.3746 C   0  0  0  0  0  0  0  0  0  0  0  0
   24.9995    3.8308    5.2311 C   0  0  0  0  0  0  0  0  0  0  0  0
   26.3111    4.1909    4.9092 C   0  0  0  0  0  0  0  0  0  0  0  0
   24.0802    4.9009    5.4409 O   0  0  0  0  0  0  0  0  0  0  0  0
   22.7622    4.5309    5.9676 C   0  0  0  0  0  0  0  0  0  0  0  0
   22.9504    4.2504    7.4507 C   0  0  0  0  0  0  0  0  0  0  0  0
   21.8415    5.6902    5.7101 C   0  0  0  0  0  0  0  0  0  0  0  0
   22.3964    3.3335    5.2063 C   0  0  2  0  0  0  0  0  0  0  0  0
   20.9791    2.8369    5.6521 C   0  0  0  0  0  0  0  0  0  0  0  0
   20.6718    1.6253    4.8558 C   0  0  0  0  0  0  0  0  0  0  0  0
   21.5247    0.8513    4.2473 C   0  0  0  0  0  0  0  0  0  0  0  0
   21.0337   -0.3587    3.4725 C   0  0  0  0  0  0  0  0  0  0  0  0
   19.6755   -0.4929    3.5229 O   0  0  0  0  0  0  0  0  0  0  0  0
   22.9572    1.2382    4.2657 C   0  0  0  0  0  0  0  0  0  0  0  0
   23.2620    2.1130    5.4798 C   0  0  1  0  0  0  0  0  0  0  0  0
   33.4619    1.0795    5.9246 H   0  0  0  0  0  0  0  0  0  0  0  0
   32.8650    0.6119    4.2364 H   0  0  0  0  0  0  0  0  0  0  0  0
   34.5446    0.4523    4.7298 H   0  0  0  0  0  0  0  0  0  0  0  0
   35.1070    2.5913    4.5488 H   0  0  0  0  0  0  0  0  0  0  0  0
   33.7897    2.6527    3.3049 H   0  0  0  0  0  0  0  0  0  0  0  0
   33.6089    3.4068    6.2995 H   0  0  0  0  0  0  0  0  0  0  0  0
   33.8591    4.5970    5.0020 H   0  0  0  0  0  0  0  0  0  0  0  0
   31.6405    4.6743    5.7894 H   0  0  0  0  0  0  0  0  0  0  0  0
   31.6872    4.2523    4.0632 H   0  0  0  0  0  0  0  0  0  0  0  0
   31.3426    2.0095    6.2376 H   0  0  0  0  0  0  0  0  0  0  0  0
   31.1350    1.9725    4.4640 H   0  0  0  0  0  0  0  0  0  0  0  0
   29.0805    1.8809    5.8360 H   0  0  0  0  0  0  0  0  0  0  0  0
   29.3302    3.4969    6.4352 H   0  0  0  0  0  0  0  0  0  0  0  0
   29.1572    1.9298    2.9045 H   0  0  0  0  0  0  0  0  0  0  0  0
   29.3992    3.6994    2.4081 H   0  0  0  0  0  0  0  0  0  0  0  0
   27.7974    2.9983    2.5332 H   0  0  0  0  0  0  0  0  0  0  0  0
   28.2557    5.4366    3.5791 H   0  0  0  0  0  0  0  0  0  0  0  0
   29.8103    5.3575    4.4528 H   0  0  0  0  0  0  0  0  0  0  0  0
   28.3279    5.3560    5.4502 H   0  0  0  0  0  0  0  0  0  0  0  0
   27.6331    1.0394    4.8793 H   0  0  0  0  0  0  0  0  0  0  0  0
   25.4778   -0.6210    4.7629 H   0  0  0  0  0  0  0  0  0  0  0  0
   26.3166   -0.2339    6.2574 H   0  0  0  0  0  0  0  0  0  0  0  0
   24.5490   -0.1267    6.3057 H   0  0  0  0  0  0  0  0  0  0  0  0
   26.5081    5.2609    4.7550 H   0  0  0  0  0  0  0  0  0  0  0  0
   24.0476    4.0429    7.5814 H   0  0  0  0  0  0  0  0  0  0  0  0
   22.7144    5.1233    8.0694 H   0  0  0  0  0  0  0  0  0  0  0  0
   22.4588    3.3658    7.8408 H   0  0  0  0  0  0  0  0  0  0  0  0
   20.9070    5.6729    6.3027 H   0  0  0  0  0  0  0  0  0  0  0  0
   22.3480    6.6453    5.8721 H   0  0  0  0  0  0  0  0  0  0  0  0
   21.5338    5.6389    4.6153 H   0  0  0  0  0  0  0  0  0  0  0  0
   22.2685    3.5110    4.1481 H   0  0  0  0  0  0  0  0  0  0  0  0
   21.1077    2.4705    6.7250 H   0  0  0  0  0  0  0  0  0  0  0  0
   20.2541    3.6399    5.6114 H   0  0  0  0  0  0  0  0  0  0  0  0
   19.6230    1.3477    4.7763 H   0  0  0  0  0  0  0  0  0  0  0  0
   21.6382   -1.2375    3.7510 H   0  0  0  0  0  0  0  0  0  0  0  0
   21.3449   -0.1691    2.3995 H   0  0  0  0  0  0  0  0  0  0  0  0
   19.2657   -0.0928    2.7069 H   0  0  0  0  0  0  0  0  0  0  0  0
   23.4895    0.2566    4.2785 H   0  0  0  0  0  0  0  0  0  0  0  0
   23.2740    1.7475    3.3099 H   0  0  0  0  0  0  0  0  0  0  0  0
   23.0665    1.6523    6.3794 H   0  0  0  0  0  0  0  0  0  0  0  0
  1  2  1  0
  2  3  1  0
  3  4  1  0
  4  5  1  0
  5  6  1  0
  6  7  1  0
  7  8  1  0
  7  9  1  0
  7 10  1  0
 10 11  2  0
 11 12  1  0
 12 13  1  0
 12 14  2  0
 14 15  1  0
 15 16  2  0
 15 17  1  0
 17 18  1  0
 18 19  1  0
 18 20  1  0
 18 21  1  0
 21 22  1  0
 22 23  1  0
 23 24  2  0
 24 25  1  0
 25 26  1  0
 24 27  1  0
 27 28  1  0
 16 10  1  0
 28 21  1  0
 28 14  1  0
  1 29  1  0
  1 30  1  0
  1 31  1  0
  2 32  1  0
  2 33  1  0
  3 34  1  0
  3 35  1  0
  4 36  1  0
  4 37  1  0
  5 38  1  0
  5 39  1  0
  6 40  1  0
  6 41  1  0
  8 42  1  0
  8 43  1  0
  8 44  1  0
  9 45  1  0
  9 46  1  0
  9 47  1  0
 11 48  1  0
 13 49  1  0
 13 50  1  0
 13 51  1  0
 16 52  1  0
 19 53  1  0
 19 54  1  0
 19 55  1  0
 20 56  1  0
 20 57  1  0
 20 58  1  0
 21 59  1  6
 22 60  1  0
 22 61  1  0
 23 62  1  0
 25 63  1  0
 25 64  1  0
 26 65  1  0
 27 66  1  0
 27 67  1  0
 28 68  1  1
M  END
$$$$
