
     RDKit          3D

 68 70  0  0  0  0  0  0  0  0999 V2000
   33.9201    0.6212    3.6092 C   0  0  0  0  0  0  0  0  0  0  0  0
   33.5581    1.6120    4.7352 C   0  0  0  0  0  0  0  0  0  0  0  0
   32.0956    1.9130    4.5815 C   0  0  0  0  0  0  0  0  0  0  0  0
   31.5596    2.9160    5.5589 C   0  0  0  0  0  0  0  0  0  0  0  0
   30.0703    3.1345    5.1918 C   0  0  0  0  0  0  0  0  0  0  0  0
   29.4802    4.1844    6.0667 C   0  0  0  0  0  0  0  0  0  0  0  0
   28.1528    4.7191    5.8065 C   0  0  0  0  0  0  0  0  0  0  0  0
   27.9633    5.8574    6.8666 C   0  0  0  0  0  0  0  0  0  0  0  0
   28.1121    5.4374    4.4444 C   0  0  0  0  0  0  0  0  0  0  0  0
   26.9266    3.9186    5.8339 C   0  0  0  0  0  0  0  0  0  0  0  0
   26.7204    2.6080    6.0182 C   0  0  0  0  0  0  0  0  0  0  0  0
   25.4204    2.0538    6.0339 C   0  0  0  0  0  0  0  0  0  0  0  0
   25.3639    0.6087    6.3194 C   0  0  0  0  0  0  0  0  0  0  0  0
   24.3210    2.8385    5.8577 C   0  0  0  0  0  0  0  0  0  0  0  0
   24.4990    4.1880    5.6869 C   0  0  0  0  0  0  0  0  0  0  0  0
   25.7552    4.7263    5.6661 C   0  0  0  0  0  0  0  0  0  0  0  0
   23.4695    5.1554    5.5987 O   0  0  0  0  0  0  0  0  0  0  0  0
   22.0885    4.7617    5.8008 C   0  0  0  0  0  0  0  0  0  0  0  0
   21.7070    4.8783    7.2409 C   0  0  0  0  0  0  0  0  0  0  0  0
   21.3094    5.7311    4.9429 C   0  0  0  0  0  0  0  0  0  0  0  0
   22.0090    3.4131    5.2427 C   0  0  2  0  0  0  0  0  0  0  0  0
   20.5491    2.9369    5.4618 C   0  0  0  0  0  0  0  0  0  0  0  0
   20.3778    1.5791    4.9717 C   0  0  0  0  0  0  0  0  0  0  0  0
   21.3909    0.8067    4.6654 C   0  0  0  0  0  0  0  0  0  0  0  0
   21.0964   -0.5598    4.1753 C   0  0  0  0  0  0  0  0  0  0  0  0
   19.7093   -0.7468    4.1444 O   0  0  0  0  0  0  0  0  0  0  0  0
   22.7960    1.2534    4.7231 C   0  0  0  0  0  0  0  0  0  0  0  0
   22.9049    2.3465    5.8093 C   0  0  1  0  0  0  0  0  0  0  0  0
   35.0236    0.4111    3.6503 H   0  0  0  0  0  0  0  0  0  0  0  0
   33.3362   -0.2926    3.8147 H   0  0  0  0  0  0  0  0  0  0  0  0
   33.6197    1.0951    2.6648 H   0  0  0  0  0  0  0  0  0  0  0  0
   33.7214    1.1165    5.6925 H   0  0  0  0  0  0  0  0  0  0  0  0
   34.1284    2.5389    4.6081 H   0  0  0  0  0  0  0  0  0  0  0  0
   31.9521    2.3350    3.5654 H   0  0  0  0  0  0  0  0  0  0  0  0
   31.5313    0.9502    4.7299 H   0  0  0  0  0  0  0  0  0  0  0  0
   31.6465    2.4861    6.5700 H   0  0  0  0  0  0  0  0  0  0  0  0
   32.0402    3.9070    5.4888 H   0  0  0  0  0  0  0  0  0  0  0  0
   29.9517    3.2724    4.1048 H   0  0  0  0  0  0  0  0  0  0  0  0
   29.6117    2.1509    5.4277 H   0  0  0  0  0  0  0  0  0  0  0  0
   30.2616    4.9907    6.1915 H   0  0  0  0  0  0  0  0  0  0  0  0
   29.4596    3.7776    7.1623 H   0  0  0  0  0  0  0  0  0  0  0  0
   28.8569    6.0278    7.4465 H   0  0  0  0  0  0  0  0  0  0  0  0
   27.1665    5.5529    7.5585 H   0  0  0  0  0  0  0  0  0  0  0  0
   27.6604    6.7874    6.3719 H   0  0  0  0  0  0  0  0  0  0  0  0
   29.0950    5.8743    4.2406 H   0  0  0  0  0  0  0  0  0  0  0  0
   27.7966    4.6705    3.7185 H   0  0  0  0  0  0  0  0  0  0  0  0
   27.3612    6.2169    4.4808 H   0  0  0  0  0  0  0  0  0  0  0  0
   27.5613    1.9638    6.1836 H   0  0  0  0  0  0  0  0  0  0  0  0
   26.2123    0.3716    7.0710 H   0  0  0  0  0  0  0  0  0  0  0  0
   25.6647    0.0357    5.4421 H   0  0  0  0  0  0  0  0  0  0  0  0
   24.4710    0.2793    6.8566 H   0  0  0  0  0  0  0  0  0  0  0  0
   25.8567    5.7980    5.5358 H   0  0  0  0  0  0  0  0  0  0  0  0
   22.0696    4.0022    7.8031 H   0  0  0  0  0  0  0  0  0  0  0  0
   20.5961    4.9690    7.2781 H   0  0  0  0  0  0  0  0  0  0  0  0
   22.1205    5.8188    7.6518 H   0  0  0  0  0  0  0  0  0  0  0  0
   21.7759    6.7289    4.8821 H   0  0  0  0  0  0  0  0  0  0  0  0
   21.2660    5.2782    3.9032 H   0  0  0  0  0  0  0  0  0  0  0  0
   20.2646    5.7666    5.2741 H   0  0  0  0  0  0  0  0  0  0  0  0
   22.1579    3.4627    4.1611 H   0  0  0  0  0  0  0  0  0  0  0  0
   20.3120    3.0145    6.5506 H   0  0  0  0  0  0  0  0  0  0  0  0
   19.9389    3.6587    4.8493 H   0  0  0  0  0  0  0  0  0  0  0  0
   19.3631    1.1922    4.8691 H   0  0  0  0  0  0  0  0  0  0  0  0
   21.4833   -1.3792    4.8164 H   0  0  0  0  0  0  0  0  0  0  0  0
   21.4324   -0.7070    3.1112 H   0  0  0  0  0  0  0  0  0  0  0  0
   19.3477   -0.9349    5.0403 H   0  0  0  0  0  0  0  0  0  0  0  0
   23.4730    0.4363    4.8132 H   0  0  0  0  0  0  0  0  0  0  0  0
   22.9632    1.7616    3.7147 H   0  0  0  0  0  0  0  0  0  0  0  0
   22.5989    1.9818    6.7575 H   0  0  0  0  0  0  0  0  0  0  0  0
  1  2  1  0
  2  3  1  0
  3  4  1  0
  4  5  1  0
  5  6  1  0
  6  7  1  0
  7  8  1  0
  7  9  1  0
  7 10  1  0
 10 11  2  0
 11 12  1  0
 12 13  1  0
 12 14  2  0
 14 15  1  0
 15 16  2  0
 15 17  1  0
 17 18  1  0
 18 19  1  0
 18 20  1  0
 18 21  1  0
 21 22  1  0
 22 23  1  0
 23 24  2  0
 24 25  1  0
 25 26  1  0
 24 27  1  0
 27 28  1  0
 16 10  1  0
 28 21  1  0
 28 14  1  0
  1 29  1  0
  1 30  1  0
  1 31  1  0
  2 32  1  0
  2 33  1  0
  3 34  1  0
  3 35  1  0
  4 36  1  0
  4 37  1  0
  5 38  1  0
  5 39  1  0
  6 40  1  0
  6 41  1  0
  8 42  1  0
  8 43  1  0
  8 44  1  0
  9 45  1  0
  9 46  1  0
  9 47  1  0
 11 48  1  0
 13 49  1  0
 13 50  1  0
 13 51  1  0
 16 52  1  0
 19 53  1  0
 19 54  1  0
 19 55  1  0
 20 56  1  0
 20 57  1  0
 20 58  1  0
 21 59  1  6
 22 60  1  0
 22 61  1  0
 23 62  1  0
 25 63  1  0
 25 64  1  0
 26 65  1  0
 27 66  1  0
 27 67  1  0
 28 68  1  1
M  END
$$$$
