
     RDKit          3D

 68 70  0  0  0  0  0  0  0  0999 V2000
   32.9930    0.9246    3.1829 C   0  0  0  0  0  0  0  0  0  0  0  0
   33.8586    1.7426    4.1500 C   0  0  0  0  0  0  0  0  0  0  0  0
   32.9609    2.3054    5.2472 C   0  0  0  0  0  0  0  0  0  0  0  0
   32.0726    3.3286    4.6881 C   0  0  0  0  0  0  0  0  0  0  0  0
   30.9743    3.9617    5.4639 C   0  0  0  0  0  0  0  0  0  0  0  0
   29.7221    3.1764    5.7389 C   0  0  0  0  0  0  0  0  0  0  0  0
   28.6398    4.1910    6.1154 C   0  0  0  0  0  0  0  0  0  0  0  0
   29.0308    4.9916    7.2886 C   0  0  0  0  0  0  0  0  0  0  0  0
   28.6171    5.0836    4.8100 C   0  0  0  0  0  0  0  0  0  0  0  0
   27.2972    3.6530    6.1772 C   0  0  0  0  0  0  0  0  0  0  0  0
   26.8904    2.3750    6.4559 C   0  0  0  0  0  0  0  0  0  0  0  0
   25.5628    1.9123    6.3978 C   0  0  0  0  0  0  0  0  0  0  0  0
   25.3648    0.5373    6.8443 C   0  0  0  0  0  0  0  0  0  0  0  0
   24.6136    2.8113    6.0300 C   0  0  0  0  0  0  0  0  0  0  0  0
   24.9282    4.1494    5.7490 C   0  0  0  0  0  0  0  0  0  0  0  0
   26.2506    4.5257    5.8234 C   0  0  0  0  0  0  0  0  0  0  0  0
   24.0236    5.1454    5.4438 O   0  0  0  0  0  0  0  0  0  0  0  0
   22.5961    4.8153    5.4851 C   0  0  0  0  0  0  0  0  0  0  0  0
   21.9576    5.7342    4.4486 C   0  0  0  0  0  0  0  0  0  0  0  0
   22.0509    5.0772    6.8367 C   0  0  0  0  0  0  0  0  0  0  0  0
   22.4749    3.4167    5.0350 C   0  0  2  0  0  0  0  0  0  0  0  0
   20.9553    3.0997    5.1075 C   0  0  0  0  0  0  0  0  0  0  0  0
   20.7715    1.7154    4.6743 C   0  0  0  0  0  0  0  0  0  0  0  0
   21.6709    0.7417    4.7492 C   0  0  0  0  0  0  0  0  0  0  0  0
   21.4197   -0.6467    4.3018 C   0  0  0  0  0  0  0  0  0  0  0  0
   22.3028   -0.9885    3.3195 O   0  0  0  0  0  0  0  0  0  0  0  0
   23.0741    1.0681    5.1140 C   0  0  0  0  0  0  0  0  0  0  0  0
   23.2264    2.3771    5.8483 C   0  0  1  0  0  0  0  0  0  0  0  0
   33.7117    0.5747    2.4048 H   0  0  0  0  0  0  0  0  0  0  0  0
   32.2637    1.5620    2.7114 H   0  0  0  0  0  0  0  0  0  0  0  0
   32.5700    0.0448    3.7426 H   0  0  0  0  0  0  0  0  0  0  0  0
   34.2729    2.5632    3.4853 H   0  0  0  0  0  0  0  0  0  0  0  0
   34.6097    1.0952    4.5870 H   0  0  0  0  0  0  0  0  0  0  0  0
   33.7269    2.8158    5.9314 H   0  0  0  0  0  0  0  0  0  0  0  0
   32.5443    1.4730    5.7754 H   0  0  0  0  0  0  0  0  0  0  0  0
   31.5962    2.9761    3.7207 H   0  0  0  0  0  0  0  0  0  0  0  0
   32.7434    4.1607    4.2609 H   0  0  0  0  0  0  0  0  0  0  0  0
   30.9173    5.0347    5.3608 H   0  0  0  0  0  0  0  0  0  0  0  0
   31.5399    3.9629    6.5700 H   0  0  0  0  0  0  0  0  0  0  0  0
   29.8905    2.4922    6.5863 H   0  0  0  0  0  0  0  0  0  0  0  0
   29.4538    2.6335    4.8134 H   0  0  0  0  0  0  0  0  0  0  0  0
   29.9215    4.5437    7.7673 H   0  0  0  0  0  0  0  0  0  0  0  0
   29.3029    6.0605    7.0624 H   0  0  0  0  0  0  0  0  0  0  0  0
   28.2011    4.9803    8.0627 H   0  0  0  0  0  0  0  0  0  0  0  0
   28.1805    6.0633    4.9673 H   0  0  0  0  0  0  0  0  0  0  0  0
   29.5999    5.1185    4.3241 H   0  0  0  0  0  0  0  0  0  0  0  0
   27.9743    4.4990    4.0584 H   0  0  0  0  0  0  0  0  0  0  0  0
   27.7036    1.6837    6.7295 H   0  0  0  0  0  0  0  0  0  0  0  0
   26.3068    0.1992    7.4092 H   0  0  0  0  0  0  0  0  0  0  0  0
   24.6101    0.4211    7.6493 H   0  0  0  0  0  0  0  0  0  0  0  0
   25.3400   -0.2006    6.0182 H   0  0  0  0  0  0  0  0  0  0  0  0
   26.4442    5.5680    5.5359 H   0  0  0  0  0  0  0  0  0  0  0  0
   22.4012    6.7708    4.5599 H   0  0  0  0  0  0  0  0  0  0  0  0
   22.3431    5.3743    3.4479 H   0  0  0  0  0  0  0  0  0  0  0  0
   20.8686    5.7709    4.4593 H   0  0  0  0  0  0  0  0  0  0  0  0
   20.9379    5.0386    6.8176 H   0  0  0  0  0  0  0  0  0  0  0  0
   22.3258    6.1217    7.1725 H   0  0  0  0  0  0  0  0  0  0  0  0
   22.3926    4.3350    7.5508 H   0  0  0  0  0  0  0  0  0  0  0  0
   22.7662    3.3270    3.9687 H   0  0  0  0  0  0  0  0  0  0  0  0
   20.4893    3.8044    4.4446 H   0  0  0  0  0  0  0  0  0  0  0  0
   20.6479    3.1537    6.1765 H   0  0  0  0  0  0  0  0  0  0  0  0
   19.7615    1.4378    4.3150 H   0  0  0  0  0  0  0  0  0  0  0  0
   20.3540   -0.7350    3.9088 H   0  0  0  0  0  0  0  0  0  0  0  0
   21.5209   -1.3624    5.1433 H   0  0  0  0  0  0  0  0  0  0  0  0
   23.2450   -1.0528    3.6824 H   0  0  0  0  0  0  0  0  0  0  0  0
   23.1882    0.2825    5.9497 H   0  0  0  0  0  0  0  0  0  0  0  0
   23.7434    0.9866    4.3076 H   0  0  0  0  0  0  0  0  0  0  0  0
   22.7724    2.3285    6.8972 H   0  0  0  0  0  0  0  0  0  0  0  0
  1  2  1  0
  2  3  1  0
  3  4  1  0
  4  5  1  0
  5  6  1  0
  6  7  1  0
  7  8  1  0
  7  9  1  0
  7 10  1  0
 10 11  2  0
 11 12  1  0
 12 13  1  0
 12 14  2  0
 14 15  1  0
 15 16  2  0
 15 17  1  0
 17 18  1  0
 18 19  1  0
 18 20  1  0
 18 21  1  0
 21 22  1  0
 22 23  1  0
 23 24  2  0
 24 25  1  0
 25 26  1  0
 24 27  1  0
 27 28  1  0
 16 10  1  0
 28 21  1  0
 28 14  1  0
  1 29  1  0
  1 30  1  0
  1 31  1  0
  2 32  1  0
  2 33  1  0
  3 34  1  0
  3 35  1  0
  4 36  1  0
  4 37  1  0
  5 38  1  0
  5 39  1  0
  6 40  1  0
  6 41  1  0
  8 42  1  0
  8 43  1  0
  8 44  1  0
  9 45  1  0
  9 46  1  0
  9 47  1  0
 11 48  1  0
 13 49  1  0
 13 50  1  0
 13 51  1  0
 16 52  1  0
 19 53  1  0
 19 54  1  0
 19 55  1  0
 20 56  1  0
 20 57  1  0
 20 58  1  0
 21 59  1  6
 22 60  1  0
 22 61  1  0
 23 62  1  0
 25 63  1  0
 25 64  1  0
 26 65  1  0
 27 66  1  0
 27 67  1  0
 28 68  1  1
M  END
$$$$
