
     RDKit          3D

 68 70  0  0  0  0  0  0  0  0999 V2000
   34.9764    3.1006    8.2593 C   0  0  0  0  0  0  0  0  0  0  0  0
   34.2672    3.9324    9.2172 C   0  0  0  0  0  0  0  0  0  0  0  0
   33.4010    5.0469    8.7164 C   0  0  0  0  0  0  0  0  0  0  0  0
   32.2525    4.7289    7.7973 C   0  0  0  0  0  0  0  0  0  0  0  0
   31.3288    3.6997    8.3665 C   0  0  0  0  0  0  0  0  0  0  0  0
   30.0115    3.6249    7.6554 C   0  0  0  0  0  0  0  0  0  0  0  0
   29.1723    2.4746    8.2273 C   0  0  0  0  0  0  0  0  0  0  0  0
   29.1443    2.6948    9.7650 C   0  0  0  0  0  0  0  0  0  0  0  0
   29.8044    1.1893    7.9202 C   0  0  0  0  0  0  0  0  0  0  0  0
   27.7279    2.5881    7.8563 C   0  0  0  0  0  0  0  0  0  0  0  0
   27.0957    1.9123    6.8882 C   0  0  0  0  0  0  0  0  0  0  0  0
   25.7555    2.0018    6.7371 C   0  0  0  0  0  0  0  0  0  0  0  0
   25.0885    1.3294    5.5677 C   0  0  0  0  0  0  0  0  0  0  0  0
   24.8859    2.7658    7.5163 C   0  0  0  0  0  0  0  0  0  0  0  0
   25.5797    3.4767    8.5250 C   0  0  0  0  0  0  0  0  0  0  0  0
   26.9326    3.3797    8.6699 C   0  0  0  0  0  0  0  0  0  0  0  0
   24.8998    4.2808    9.4279 O   0  0  0  0  0  0  0  0  0  0  0  0
   23.4799    4.3920    9.3950 C   0  0  0  0  0  0  0  0  0  0  0  0
   23.1474    5.8974    9.7039 C   0  0  0  0  0  0  0  0  0  0  0  0
   22.9384    3.6612   10.6116 C   0  0  0  0  0  0  0  0  0  0  0  0
   22.9232    4.0539    8.1116 C   0  0  2  0  0  0  0  0  0  0  0  0
   21.5455    4.0362    7.6394 C   0  0  0  0  0  0  0  0  0  0  0  0
   20.7112    2.9810    8.2436 C   0  0  0  0  0  0  0  0  0  0  0  0
   21.2233    1.7862    7.8459 C   0  0  0  0  0  0  0  0  0  0  0  0
   20.6147    0.4898    8.2666 C   0  0  0  0  0  0  0  0  0  0  0  0
   19.5083    0.6979    9.0838 O   0  0  0  0  0  0  0  0  0  0  0  0
   22.5431    1.7557    7.0559 C   0  0  0  0  0  0  0  0  0  0  0  0
   23.4758    2.5981    7.6966 C   0  0  1  0  0  0  0  0  0  0  0  0
   35.1452    3.4906    7.2700 H   0  0  0  0  0  0  0  0  0  0  0  0
   34.4593    2.0725    8.1365 H   0  0  0  0  0  0  0  0  0  0  0  0
   35.9792    2.7552    8.6961 H   0  0  0  0  0  0  0  0  0  0  0  0
   33.6367    3.2676    9.8597 H   0  0  0  0  0  0  0  0  0  0  0  0
   35.0102    4.4458    9.9278 H   0  0  0  0  0  0  0  0  0  0  0  0
   34.0650    5.7532    8.1304 H   0  0  0  0  0  0  0  0  0  0  0  0
   33.0133    5.6108    9.6232 H   0  0  0  0  0  0  0  0  0  0  0  0
   31.6828    5.6700    7.6056 H   0  0  0  0  0  0  0  0  0  0  0  0
   32.6864    4.4057    6.8160 H   0  0  0  0  0  0  0  0  0  0  0  0
   31.2032    3.8753    9.4478 H   0  0  0  0  0  0  0  0  0  0  0  0
   31.8811    2.7089    8.2599 H   0  0  0  0  0  0  0  0  0  0  0  0
   30.2343    3.3573    6.6101 H   0  0  0  0  0  0  0  0  0  0  0  0
   29.4785    4.5866    7.7055 H   0  0  0  0  0  0  0  0  0  0  0  0
   28.2136    2.2294   10.1493 H   0  0  0  0  0  0  0  0  0  0  0  0
   29.2914    3.7363   10.0215 H   0  0  0  0  0  0  0  0  0  0  0  0
   29.9584    2.0713   10.2091 H   0  0  0  0  0  0  0  0  0  0  0  0
   30.8116    1.2383    7.4508 H   0  0  0  0  0  0  0  0  0  0  0  0
   29.2219    0.5733    7.1880 H   0  0  0  0  0  0  0  0  0  0  0  0
   29.9072    0.4827    8.8058 H   0  0  0  0  0  0  0  0  0  0  0  0
   27.6536    1.2583    6.1662 H   0  0  0  0  0  0  0  0  0  0  0  0
   24.8674    0.2881    5.6998 H   0  0  0  0  0  0  0  0  0  0  0  0
   24.2951    1.9754    5.1329 H   0  0  0  0  0  0  0  0  0  0  0  0
   25.8605    1.3463    4.7345 H   0  0  0  0  0  0  0  0  0  0  0  0
   27.3885    3.9571    9.4463 H   0  0  0  0  0  0  0  0  0  0  0  0
   22.0809    5.9702    9.6353 H   0  0  0  0  0  0  0  0  0  0  0  0
   23.4265    6.0313   10.7677 H   0  0  0  0  0  0  0  0  0  0  0  0
   23.7113    6.5448    9.0510 H   0  0  0  0  0  0  0  0  0  0  0  0
   21.8375    3.5164   10.5825 H   0  0  0  0  0  0  0  0  0  0  0  0
   23.1149    4.2725   11.5685 H   0  0  0  0  0  0  0  0  0  0  0  0
   23.3629    2.6524   10.7811 H   0  0  0  0  0  0  0  0  0  0  0  0
   23.5836    4.6550    7.3349 H   0  0  0  0  0  0  0  0  0  0  0  0
   21.0047    5.0098    7.6705 H   0  0  0  0  0  0  0  0  0  0  0  0
   21.5664    3.8282    6.5300 H   0  0  0  0  0  0  0  0  0  0  0  0
   19.8505    3.0981    8.8685 H   0  0  0  0  0  0  0  0  0  0  0  0
   21.3605   -0.0621    8.9308 H   0  0  0  0  0  0  0  0  0  0  0  0
   20.3641   -0.1643    7.4279 H   0  0  0  0  0  0  0  0  0  0  0  0
   19.8468    1.0063    9.9857 H   0  0  0  0  0  0  0  0  0  0  0  0
   22.1204    1.9968    6.0612 H   0  0  0  0  0  0  0  0  0  0  0  0
   22.8953    0.6808    7.0869 H   0  0  0  0  0  0  0  0  0  0  0  0
   23.4584    2.1556    8.8165 H   0  0  0  0  0  0  0  0  0  0  0  0
  1  2  1  0
  2  3  1  0
  3  4  1  0
  4  5  1  0
  5  6  1  0
  6  7  1  0
  7  8  1  0
  7  9  1  0
  7 10  1  0
 10 11  2  0
 11 12  1  0
 12 13  1  0
 12 14  2  0
 14 15  1  0
 15 16  2  0
 15 17  1  0
 17 18  1  0
 18 19  1  0
 18 20  1  0
 18 21  1  0
 21 22  1  0
 22 23  1  0
 23 24  2  0
 24 25  1  0
 25 26  1  0
 24 27  1  0
 27 28  1  0
 16 10  1  0
 28 21  1  0
 28 14  1  0
  1 29  1  0
  1 30  1  0
  1 31  1  0
  2 32  1  0
  2 33  1  0
  3 34  1  0
  3 35  1  0
  4 36  1  0
  4 37  1  0
  5 38  1  0
  5 39  1  0
  6 40  1  0
  6 41  1  0
  8 42  1  0
  8 43  1  0
  8 44  1  0
  9 45  1  0
  9 46  1  0
  9 47  1  0
 11 48  1  0
 13 49  1  0
 13 50  1  0
 13 51  1  0
 16 52  1  0
 19 53  1  0
 19 54  1  0
 19 55  1  0
 20 56  1  0
 20 57  1  0
 20 58  1  0
 21 59  1  6
 22 60  1  0
 22 61  1  0
 23 62  1  0
 25 63  1  0
 25 64  1  0
 26 65  1  0
 27 66  1  0
 27 67  1  0
 28 68  1  1
M  END
$$$$
