
     RDKit          3D

 68 70  0  0  0  0  0  0  0  0999 V2000
   34.1805    1.6177    7.7350 C   0  0  0  0  0  0  0  0  0  0  0  0
   34.5373    3.0141    7.3362 C   0  0  0  0  0  0  0  0  0  0  0  0
   33.9073    4.0902    8.1372 C   0  0  0  0  0  0  0  0  0  0  0  0
   32.3976    4.2957    8.0459 C   0  0  0  0  0  0  0  0  0  0  0  0
   31.5403    3.1546    8.2948 C   0  0  0  0  0  0  0  0  0  0  0  0
   30.0894    3.3491    8.4000 C   0  0  0  0  0  0  0  0  0  0  0  0
   29.3040    3.9756    7.3542 C   0  0  0  0  0  0  0  0  0  0  0  0
   29.3573    3.4377    5.9521 C   0  0  0  0  0  0  0  0  0  0  0  0
   29.3557    5.4713    7.3906 C   0  0  0  0  0  0  0  0  0  0  0  0
   27.7939    3.6720    7.7142 C   0  0  0  0  0  0  0  0  0  0  0  0
   27.5127    2.3360    7.8894 C   0  0  0  0  0  0  0  0  0  0  0  0
   26.1840    1.9736    8.1968 C   0  0  0  0  0  0  0  0  0  0  0  0
   25.9732    0.5566    8.5081 C   0  0  0  0  0  0  0  0  0  0  0  0
   25.2834    2.9853    8.2926 C   0  0  0  0  0  0  0  0  0  0  0  0
   25.5575    4.3168    8.1491 C   0  0  0  0  0  0  0  0  0  0  0  0
   26.8691    4.6769    7.8272 C   0  0  0  0  0  0  0  0  0  0  0  0
   24.6382    5.3869    8.3589 O   0  0  0  0  0  0  0  0  0  0  0  0
   23.3202    5.0169    8.8856 C   0  0  0  0  0  0  0  0  0  0  0  0
   23.5084    4.7364   10.3687 C   0  0  0  0  0  0  0  0  0  0  0  0
   22.3995    6.1762    8.6281 C   0  0  0  0  0  0  0  0  0  0  0  0
   22.9544    3.8195    8.1243 C   0  0  2  0  0  0  0  0  0  0  0  0
   21.5371    3.3229    8.5701 C   0  0  0  0  0  0  0  0  0  0  0  0
   21.2298    2.1113    7.7738 C   0  0  0  0  0  0  0  0  0  0  0  0
   22.0827    1.3373    7.1653 C   0  0  0  0  0  0  0  0  0  0  0  0
   21.5917    0.1273    6.3905 C   0  0  0  0  0  0  0  0  0  0  0  0
   20.2335   -0.0069    6.4409 O   0  0  0  0  0  0  0  0  0  0  0  0
   23.5152    1.7242    7.1837 C   0  0  0  0  0  0  0  0  0  0  0  0
   23.8200    2.5990    8.3978 C   0  0  1  0  0  0  0  0  0  0  0  0
   34.0199    1.5655    8.8426 H   0  0  0  0  0  0  0  0  0  0  0  0
   33.4230    1.0979    7.1544 H   0  0  0  0  0  0  0  0  0  0  0  0
   35.1026    0.9383    7.6478 H   0  0  0  0  0  0  0  0  0  0  0  0
   35.6650    3.0773    7.4668 H   0  0  0  0  0  0  0  0  0  0  0  0
   34.3477    3.1387    6.2229 H   0  0  0  0  0  0  0  0  0  0  0  0
   34.1669    3.8928    9.2175 H   0  0  0  0  0  0  0  0  0  0  0  0
   34.4171    5.0830    7.9200 H   0  0  0  0  0  0  0  0  0  0  0  0
   32.1985    5.1603    8.7074 H   0  0  0  0  0  0  0  0  0  0  0  0
   32.2452    4.7383    6.9812 H   0  0  0  0  0  0  0  0  0  0  0  0
   31.9006    2.4955    9.1556 H   0  0  0  0  0  0  0  0  0  0  0  0
   31.6930    2.4585    7.3820 H   0  0  0  0  0  0  0  0  0  0  0  0
   29.6385    2.3669    8.7540 H   0  0  0  0  0  0  0  0  0  0  0  0
   29.8882    3.9829    9.3532 H   0  0  0  0  0  0  0  0  0  0  0  0
   29.7152    2.4158    5.8225 H   0  0  0  0  0  0  0  0  0  0  0  0
   29.9572    4.1854    5.3261 H   0  0  0  0  0  0  0  0  0  0  0  0
   28.3554    3.4843    5.4512 H   0  0  0  0  0  0  0  0  0  0  0  0
   28.8137    5.9226    6.4971 H   0  0  0  0  0  0  0  0  0  0  0  0
   30.3683    5.8435    7.3708 H   0  0  0  0  0  0  0  0  0  0  0  0
   28.8859    5.8420    8.3682 H   0  0  0  0  0  0  0  0  0  0  0  0
   28.1911    1.5254    7.7973 H   0  0  0  0  0  0  0  0  0  0  0  0
   26.0358   -0.1350    7.6809 H   0  0  0  0  0  0  0  0  0  0  0  0
   26.8746    0.2521    9.1754 H   0  0  0  0  0  0  0  0  0  0  0  0
   25.1070    0.3593    9.2237 H   0  0  0  0  0  0  0  0  0  0  0  0
   27.0661    5.7469    7.6730 H   0  0  0  0  0  0  0  0  0  0  0  0
   24.6056    4.5289   10.4994 H   0  0  0  0  0  0  0  0  0  0  0  0
   23.2724    5.6093   10.9874 H   0  0  0  0  0  0  0  0  0  0  0  0
   23.0168    3.8518   10.7588 H   0  0  0  0  0  0  0  0  0  0  0  0
   21.4650    6.1589    9.2207 H   0  0  0  0  0  0  0  0  0  0  0  0
   22.9060    7.1313    8.7901 H   0  0  0  0  0  0  0  0  0  0  0  0
   22.0918    6.1249    7.5333 H   0  0  0  0  0  0  0  0  0  0  0  0
   22.8265    3.9970    7.0661 H   0  0  0  0  0  0  0  0  0  0  0  0
   21.6657    2.9565    9.6430 H   0  0  0  0  0  0  0  0  0  0  0  0
   20.8121    4.1259    8.5294 H   0  0  0  0  0  0  0  0  0  0  0  0
   20.1810    1.8337    7.6943 H   0  0  0  0  0  0  0  0  0  0  0  0
   22.1962   -0.7515    6.6690 H   0  0  0  0  0  0  0  0  0  0  0  0
   21.9029    0.3169    5.3175 H   0  0  0  0  0  0  0  0  0  0  0  0
   19.8237    0.3932    5.6249 H   0  0  0  0  0  0  0  0  0  0  0  0
   24.0475    0.7426    7.1965 H   0  0  0  0  0  0  0  0  0  0  0  0
   23.8320    2.2335    6.2279 H   0  0  0  0  0  0  0  0  0  0  0  0
   23.6245    2.1383    9.2974 H   0  0  0  0  0  0  0  0  0  0  0  0
  1  2  1  0
  2  3  1  0
  3  4  1  0
  4  5  1  0
  5  6  1  0
  6  7  1  0
  7  8  1  0
  7  9  1  0
  7 10  1  0
 10 11  2  0
 11 12  1  0
 12 13  1  0
 12 14  2  0
 14 15  1  0
 15 16  2  0
 15 17  1  0
 17 18  1  0
 18 19  1  0
 18 20  1  0
 18 21  1  0
 21 22  1  0
 22 23  1  0
 23 24  2  0
 24 25  1  0
 25 26  1  0
 24 27  1  0
 27 28  1  0
 16 10  1  0
 28 21  1  0
 28 14  1  0
  1 29  1  0
  1 30  1  0
  1 31  1  0
  2 32  1  0
  2 33  1  0
  3 34  1  0
  3 35  1  0
  4 36  1  0
  4 37  1  0
  5 38  1  0
  5 39  1  0
  6 40  1  0
  6 41  1  0
  8 42  1  0
  8 43  1  0
  8 44  1  0
  9 45  1  0
  9 46  1  0
  9 47  1  0
 11 48  1  0
 13 49  1  0
 13 50  1  0
 13 51  1  0
 16 52  1  0
 19 53  1  0
 19 54  1  0
 19 55  1  0
 20 56  1  0
 20 57  1  0
 20 58  1  0
 21 59  1  6
 22 60  1  0
 22 61  1  0
 23 62  1  0
 25 63  1  0
 25 64  1  0
 26 65  1  0
 27 66  1  0
 27 67  1  0
 28 68  1  1
M  END
$$$$
