
     RDKit          3D

 68 70  0  0  0  0  0  0  0  0999 V2000
   34.4781    1.1072    6.5272 C   0  0  0  0  0  0  0  0  0  0  0  0
   34.1161    2.0980    7.6532 C   0  0  0  0  0  0  0  0  0  0  0  0
   32.6536    2.3990    7.4995 C   0  0  0  0  0  0  0  0  0  0  0  0
   32.1176    3.4020    8.4769 C   0  0  0  0  0  0  0  0  0  0  0  0
   30.6283    3.6205    8.1098 C   0  0  0  0  0  0  0  0  0  0  0  0
   30.0382    4.6704    8.9847 C   0  0  0  0  0  0  0  0  0  0  0  0
   28.7108    5.2051    8.7245 C   0  0  0  0  0  0  0  0  0  0  0  0
   28.5213    6.3434    9.7846 C   0  0  0  0  0  0  0  0  0  0  0  0
   28.6701    5.9234    7.3624 C   0  0  0  0  0  0  0  0  0  0  0  0
   27.4846    4.4046    8.7519 C   0  0  0  0  0  0  0  0  0  0  0  0
   27.2784    3.0940    8.9362 C   0  0  0  0  0  0  0  0  0  0  0  0
   25.9784    2.5398    8.9519 C   0  0  0  0  0  0  0  0  0  0  0  0
   25.9219    1.0947    9.2374 C   0  0  0  0  0  0  0  0  0  0  0  0
   24.8790    3.3245    8.7757 C   0  0  0  0  0  0  0  0  0  0  0  0
   25.0570    4.6740    8.6049 C   0  0  0  0  0  0  0  0  0  0  0  0
   26.3132    5.2123    8.5841 C   0  0  0  0  0  0  0  0  0  0  0  0
   24.0275    5.6414    8.5167 O   0  0  0  0  0  0  0  0  0  0  0  0
   22.6465    5.2477    8.7188 C   0  0  0  0  0  0  0  0  0  0  0  0
   22.2650    5.3643   10.1589 C   0  0  0  0  0  0  0  0  0  0  0  0
   21.8674    6.2171    7.8609 C   0  0  0  0  0  0  0  0  0  0  0  0
   22.5670    3.8991    8.1607 C   0  0  2  0  0  0  0  0  0  0  0  0
   21.1071    3.4229    8.3798 C   0  0  0  0  0  0  0  0  0  0  0  0
   20.9358    2.0651    7.8897 C   0  0  0  0  0  0  0  0  0  0  0  0
   21.9489    1.2927    7.5834 C   0  0  0  0  0  0  0  0  0  0  0  0
   21.6544   -0.0738    7.0933 C   0  0  0  0  0  0  0  0  0  0  0  0
   20.2673   -0.2608    7.0624 O   0  0  0  0  0  0  0  0  0  0  0  0
   23.3540    1.7394    7.6411 C   0  0  0  0  0  0  0  0  0  0  0  0
   23.4629    2.8325    8.7273 C   0  0  1  0  0  0  0  0  0  0  0  0
   35.5816    0.8971    6.5683 H   0  0  0  0  0  0  0  0  0  0  0  0
   33.8942    0.1934    6.7327 H   0  0  0  0  0  0  0  0  0  0  0  0
   34.1777    1.5811    5.5828 H   0  0  0  0  0  0  0  0  0  0  0  0
   34.2794    1.6025    8.6105 H   0  0  0  0  0  0  0  0  0  0  0  0
   34.6864    3.0249    7.5261 H   0  0  0  0  0  0  0  0  0  0  0  0
   32.5101    2.8210    6.4834 H   0  0  0  0  0  0  0  0  0  0  0  0
   32.0893    1.4362    7.6479 H   0  0  0  0  0  0  0  0  0  0  0  0
   32.2045    2.9721    9.4880 H   0  0  0  0  0  0  0  0  0  0  0  0
   32.5982    4.3930    8.4068 H   0  0  0  0  0  0  0  0  0  0  0  0
   30.5097    3.7584    7.0228 H   0  0  0  0  0  0  0  0  0  0  0  0
   30.1697    2.6369    8.3457 H   0  0  0  0  0  0  0  0  0  0  0  0
   30.8196    5.4767    9.1095 H   0  0  0  0  0  0  0  0  0  0  0  0
   30.0176    4.2636   10.0803 H   0  0  0  0  0  0  0  0  0  0  0  0
   29.4149    6.5138   10.3645 H   0  0  0  0  0  0  0  0  0  0  0  0
   27.7245    6.0389   10.4765 H   0  0  0  0  0  0  0  0  0  0  0  0
   28.2184    7.2734    9.2899 H   0  0  0  0  0  0  0  0  0  0  0  0
   29.6530    6.3603    7.1586 H   0  0  0  0  0  0  0  0  0  0  0  0
   28.3546    5.1565    6.6365 H   0  0  0  0  0  0  0  0  0  0  0  0
   27.9192    6.7029    7.3988 H   0  0  0  0  0  0  0  0  0  0  0  0
   28.1193    2.4498    9.1016 H   0  0  0  0  0  0  0  0  0  0  0  0
   26.7703    0.8576    9.9890 H   0  0  0  0  0  0  0  0  0  0  0  0
   26.2227    0.5217    8.3601 H   0  0  0  0  0  0  0  0  0  0  0  0
   25.0290    0.7653    9.7746 H   0  0  0  0  0  0  0  0  0  0  0  0
   26.4147    6.2840    8.4538 H   0  0  0  0  0  0  0  0  0  0  0  0
   22.6276    4.4882   10.7211 H   0  0  0  0  0  0  0  0  0  0  0  0
   21.1541    5.4550   10.1961 H   0  0  0  0  0  0  0  0  0  0  0  0
   22.6785    6.3048   10.5698 H   0  0  0  0  0  0  0  0  0  0  0  0
   22.3339    7.2149    7.8001 H   0  0  0  0  0  0  0  0  0  0  0  0
   21.8240    5.7642    6.8212 H   0  0  0  0  0  0  0  0  0  0  0  0
   20.8226    6.2526    8.1921 H   0  0  0  0  0  0  0  0  0  0  0  0
   22.7159    3.9487    7.0791 H   0  0  0  0  0  0  0  0  0  0  0  0
   20.8700    3.5005    9.4686 H   0  0  0  0  0  0  0  0  0  0  0  0
   20.4969    4.1447    7.7673 H   0  0  0  0  0  0  0  0  0  0  0  0
   19.9211    1.6782    7.7871 H   0  0  0  0  0  0  0  0  0  0  0  0
   22.0413   -0.8932    7.7344 H   0  0  0  0  0  0  0  0  0  0  0  0
   21.9904   -0.2210    6.0292 H   0  0  0  0  0  0  0  0  0  0  0  0
   19.9057   -0.4489    7.9583 H   0  0  0  0  0  0  0  0  0  0  0  0
   24.0310    0.9223    7.7312 H   0  0  0  0  0  0  0  0  0  0  0  0
   23.5212    2.2476    6.6327 H   0  0  0  0  0  0  0  0  0  0  0  0
   23.1569    2.4678    9.6755 H   0  0  0  0  0  0  0  0  0  0  0  0
  1  2  1  0
  2  3  1  0
  3  4  1  0
  4  5  1  0
  5  6  1  0
  6  7  1  0
  7  8  1  0
  7  9  1  0
  7 10  1  0
 10 11  2  0
 11 12  1  0
 12 13  1  0
 12 14  2  0
 14 15  1  0
 15 16  2  0
 15 17  1  0
 17 18  1  0
 18 19  1  0
 18 20  1  0
 18 21  1  0
 21 22  1  0
 22 23  1  0
 23 24  2  0
 24 25  1  0
 25 26  1  0
 24 27  1  0
 27 28  1  0
 16 10  1  0
 28 21  1  0
 28 14  1  0
  1 29  1  0
  1 30  1  0
  1 31  1  0
  2 32  1  0
  2 33  1  0
  3 34  1  0
  3 35  1  0
  4 36  1  0
  4 37  1  0
  5 38  1  0
  5 39  1  0
  6 40  1  0
  6 41  1  0
  8 42  1  0
  8 43  1  0
  8 44  1  0
  9 45  1  0
  9 46  1  0
  9 47  1  0
 11 48  1  0
 13 49  1  0
 13 50  1  0
 13 51  1  0
 16 52  1  0
 19 53  1  0
 19 54  1  0
 19 55  1  0
 20 56  1  0
 20 57  1  0
 20 58  1  0
 21 59  1  6
 22 60  1  0
 22 61  1  0
 23 62  1  0
 25 63  1  0
 25 64  1  0
 26 65  1  0
 27 66  1  0
 27 67  1  0
 28 68  1  1
M  END
$$$$
