
     RDKit          3D

 68 70  0  0  0  0  0  0  0  0999 V2000
   34.6350    1.5340    8.2734 C   0  0  0  0  0  0  0  0  0  0  0  0
   33.4617    2.3104    7.7339 C   0  0  0  0  0  0  0  0  0  0  0  0
   33.5515    3.8013    7.9838 C   0  0  0  0  0  0  0  0  0  0  0  0
   32.2031    4.3974    7.4041 C   0  0  0  0  0  0  0  0  0  0  0  0
   31.1049    3.9792    8.3134 C   0  0  0  0  0  0  0  0  0  0  0  0
   29.7381    4.1386    7.8310 C   0  0  0  0  0  0  0  0  0  0  0  0
   29.0796    5.3899    7.4183 C   0  0  0  0  0  0  0  0  0  0  0  0
   29.0483    6.4601    8.4903 C   0  0  0  0  0  0  0  0  0  0  0  0
   29.5020    5.9658    6.1199 C   0  0  0  0  0  0  0  0  0  0  0  0
   27.6214    4.8929    7.2614 C   0  0  0  0  0  0  0  0  0  0  0  0
   27.3997    3.6291    6.7784 C   0  0  0  0  0  0  0  0  0  0  0  0
   26.1204    3.0573    6.8917 C   0  0  0  0  0  0  0  0  0  0  0  0
   25.9334    1.7546    6.2398 C   0  0  0  0  0  0  0  0  0  0  0  0
   25.0703    3.7039    7.4728 C   0  0  0  0  0  0  0  0  0  0  0  0
   25.3193    5.0156    7.9607 C   0  0  0  0  0  0  0  0  0  0  0  0
   26.5992    5.5585    7.8277 C   0  0  0  0  0  0  0  0  0  0  0  0
   24.4087    5.8297    8.6110 O   0  0  0  0  0  0  0  0  0  0  0  0
   23.1063    5.3417    8.9005 C   0  0  0  0  0  0  0  0  0  0  0  0
   22.8143    5.4361   10.3387 C   0  0  0  0  0  0  0  0  0  0  0  0
   22.2570    6.5072    8.2745 C   0  0  0  0  0  0  0  0  0  0  0  0
   22.8071    4.1546    8.1365 C   0  0  2  0  0  0  0  0  0  0  0  0
   21.4663    3.6369    8.6416 C   0  0  0  0  0  0  0  0  0  0  0  0
   21.0922    2.3585    8.1735 C   0  0  0  0  0  0  0  0  0  0  0  0
   21.8997    1.5539    7.5093 C   0  0  0  0  0  0  0  0  0  0  0  0
   21.4452    0.2118    7.0797 C   0  0  0  0  0  0  0  0  0  0  0  0
   20.1292   -0.0461    7.4842 O   0  0  0  0  0  0  0  0  0  0  0  0
   23.2288    2.0399    7.0283 C   0  0  0  0  0  0  0  0  0  0  0  0
   23.7926    3.0584    7.9423 C   0  0  1  0  0  0  0  0  0  0  0  0
   34.7322    1.7730    9.3336 H   0  0  0  0  0  0  0  0  0  0  0  0
   34.3714    0.4171    8.2136 H   0  0  0  0  0  0  0  0  0  0  0  0
   35.5103    1.7341    7.6453 H   0  0  0  0  0  0  0  0  0  0  0  0
   32.5308    1.8470    8.0560 H   0  0  0  0  0  0  0  0  0  0  0  0
   33.5142    2.1437    6.6176 H   0  0  0  0  0  0  0  0  0  0  0  0
   33.4607    3.9765    9.0771 H   0  0  0  0  0  0  0  0  0  0  0  0
   34.3606    4.3108    7.5042 H   0  0  0  0  0  0  0  0  0  0  0  0
   32.1530    3.9342    6.3986 H   0  0  0  0  0  0  0  0  0  0  0  0
   32.3592    5.4549    7.2840 H   0  0  0  0  0  0  0  0  0  0  0  0
   31.2226    2.8861    8.6081 H   0  0  0  0  0  0  0  0  0  0  0  0
   31.2502    4.4785    9.3564 H   0  0  0  0  0  0  0  0  0  0  0  0
   29.0344    3.5330    8.5431 H   0  0  0  0  0  0  0  0  0  0  0  0
   29.7042    3.4203    6.9270 H   0  0  0  0  0  0  0  0  0  0  0  0
   28.6032    7.3677    8.0289 H   0  0  0  0  0  0  0  0  0  0  0  0
   30.0712    6.6848    8.7439 H   0  0  0  0  0  0  0  0  0  0  0  0
   28.3957    6.1327    9.3324 H   0  0  0  0  0  0  0  0  0  0  0  0
   30.2453    5.2784    5.6178 H   0  0  0  0  0  0  0  0  0  0  0  0
   28.7232    6.1283    5.3432 H   0  0  0  0  0  0  0  0  0  0  0  0
   29.9744    6.9831    6.2255 H   0  0  0  0  0  0  0  0  0  0  0  0
   28.1373    3.0551    6.2874 H   0  0  0  0  0  0  0  0  0  0  0  0
   26.8372    1.6469    5.4926 H   0  0  0  0  0  0  0  0  0  0  0  0
   25.1321    1.7093    5.4772 H   0  0  0  0  0  0  0  0  0  0  0  0
   26.1254    0.8489    6.8156 H   0  0  0  0  0  0  0  0  0  0  0  0
   26.7782    6.5398    8.2307 H   0  0  0  0  0  0  0  0  0  0  0  0
   23.3719    6.3069   10.8112 H   0  0  0  0  0  0  0  0  0  0  0  0
   21.7549    5.6870   10.5887 H   0  0  0  0  0  0  0  0  0  0  0  0
   23.1522    4.5763   10.9616 H   0  0  0  0  0  0  0  0  0  0  0  0
   22.5789    7.4015    8.8033 H   0  0  0  0  0  0  0  0  0  0  0  0
   22.5789    6.5849    7.2181 H   0  0  0  0  0  0  0  0  0  0  0  0
   21.1860    6.3062    8.3867 H   0  0  0  0  0  0  0  0  0  0  0  0
   22.5717    4.4883    7.0715 H   0  0  0  0  0  0  0  0  0  0  0  0
   20.7020    4.3850    8.2298 H   0  0  0  0  0  0  0  0  0  0  0  0
   21.3552    3.6986    9.7262 H   0  0  0  0  0  0  0  0  0  0  0  0
   20.0673    1.9429    8.4138 H   0  0  0  0  0  0  0  0  0  0  0  0
   22.1518   -0.5769    7.4544 H   0  0  0  0  0  0  0  0  0  0  0  0
   21.4260    0.2064    5.9703 H   0  0  0  0  0  0  0  0  0  0  0  0
   19.9775   -1.0224    7.4369 H   0  0  0  0  0  0  0  0  0  0  0  0
   23.0030    2.4060    5.9903 H   0  0  0  0  0  0  0  0  0  0  0  0
   23.7789    1.0801    7.0507 H   0  0  0  0  0  0  0  0  0  0  0  0
   24.0014    2.5537    8.8846 H   0  0  0  0  0  0  0  0  0  0  0  0
  1  2  1  0
  2  3  1  0
  3  4  1  0
  4  5  1  0
  5  6  1  0
  6  7  1  0
  7  8  1  0
  7  9  1  0
  7 10  1  0
 10 11  2  0
 11 12  1  0
 12 13  1  0
 12 14  2  0
 14 15  1  0
 15 16  2  0
 15 17  1  0
 17 18  1  0
 18 19  1  0
 18 20  1  0
 18 21  1  0
 21 22  1  0
 22 23  1  0
 23 24  2  0
 24 25  1  0
 25 26  1  0
 24 27  1  0
 27 28  1  0
 16 10  1  0
 28 21  1  0
 28 14  1  0
  1 29  1  0
  1 30  1  0
  1 31  1  0
  2 32  1  0
  2 33  1  0
  3 34  1  0
  3 35  1  0
  4 36  1  0
  4 37  1  0
  5 38  1  0
  5 39  1  0
  6 40  1  0
  6 41  1  0
  8 42  1  0
  8 43  1  0
  8 44  1  0
  9 45  1  0
  9 46  1  0
  9 47  1  0
 11 48  1  0
 13 49  1  0
 13 50  1  0
 13 51  1  0
 16 52  1  0
 19 53  1  0
 19 54  1  0
 19 55  1  0
 20 56  1  0
 20 57  1  0
 20 58  1  0
 21 59  1  6
 22 60  1  0
 22 61  1  0
 23 62  1  0
 25 63  1  0
 25 64  1  0
 26 65  1  0
 27 66  1  0
 27 67  1  0
 28 68  1  1
M  END
$$$$
