
     RDKit          3D

 68 70  0  0  0  0  0  0  0  0999 V2000
   33.5510    1.4106    6.1009 C   0  0  0  0  0  0  0  0  0  0  0  0
   34.4166    2.2286    7.0680 C   0  0  0  0  0  0  0  0  0  0  0  0
   33.5189    2.7914    8.1652 C   0  0  0  0  0  0  0  0  0  0  0  0
   32.6306    3.8146    7.6061 C   0  0  0  0  0  0  0  0  0  0  0  0
   31.5323    4.4477    8.3819 C   0  0  0  0  0  0  0  0  0  0  0  0
   30.2801    3.6624    8.6569 C   0  0  0  0  0  0  0  0  0  0  0  0
   29.1978    4.6770    9.0334 C   0  0  0  0  0  0  0  0  0  0  0  0
   29.5888    5.4776   10.2066 C   0  0  0  0  0  0  0  0  0  0  0  0
   29.1751    5.5696    7.7280 C   0  0  0  0  0  0  0  0  0  0  0  0
   27.8552    4.1390    9.0952 C   0  0  0  0  0  0  0  0  0  0  0  0
   27.4484    2.8610    9.3739 C   0  0  0  0  0  0  0  0  0  0  0  0
   26.1208    2.3983    9.3158 C   0  0  0  0  0  0  0  0  0  0  0  0
   25.9228    1.0233    9.7623 C   0  0  0  0  0  0  0  0  0  0  0  0
   25.1716    3.2973    8.9480 C   0  0  0  0  0  0  0  0  0  0  0  0
   25.4862    4.6354    8.6670 C   0  0  0  0  0  0  0  0  0  0  0  0
   26.8086    5.0117    8.7414 C   0  0  0  0  0  0  0  0  0  0  0  0
   24.5816    5.6314    8.3618 O   0  0  0  0  0  0  0  0  0  0  0  0
   23.1541    5.3013    8.4031 C   0  0  0  0  0  0  0  0  0  0  0  0
   22.5156    6.2202    7.3666 C   0  0  0  0  0  0  0  0  0  0  0  0
   22.6089    5.5632    9.7547 C   0  0  0  0  0  0  0  0  0  0  0  0
   23.0329    3.9027    7.9530 C   0  0  2  0  0  0  0  0  0  0  0  0
   21.5133    3.5857    8.0255 C   0  0  0  0  0  0  0  0  0  0  0  0
   21.3295    2.2014    7.5923 C   0  0  0  0  0  0  0  0  0  0  0  0
   22.2289    1.2277    7.6672 C   0  0  0  0  0  0  0  0  0  0  0  0
   21.9777   -0.1607    7.2198 C   0  0  0  0  0  0  0  0  0  0  0  0
   22.8608   -0.5025    6.2375 O   0  0  0  0  0  0  0  0  0  0  0  0
   23.6321    1.5541    8.0320 C   0  0  0  0  0  0  0  0  0  0  0  0
   23.7844    2.8631    8.7663 C   0  0  1  0  0  0  0  0  0  0  0  0
   34.2697    1.0607    5.3228 H   0  0  0  0  0  0  0  0  0  0  0  0
   32.8217    2.0480    5.6294 H   0  0  0  0  0  0  0  0  0  0  0  0
   33.1280    0.5308    6.6606 H   0  0  0  0  0  0  0  0  0  0  0  0
   34.8309    3.0492    6.4033 H   0  0  0  0  0  0  0  0  0  0  0  0
   35.1677    1.5812    7.5050 H   0  0  0  0  0  0  0  0  0  0  0  0
   34.2849    3.3018    8.8494 H   0  0  0  0  0  0  0  0  0  0  0  0
   33.1023    1.9590    8.6934 H   0  0  0  0  0  0  0  0  0  0  0  0
   32.1542    3.4621    6.6387 H   0  0  0  0  0  0  0  0  0  0  0  0
   33.3014    4.6467    7.1789 H   0  0  0  0  0  0  0  0  0  0  0  0
   31.4753    5.5207    8.2788 H   0  0  0  0  0  0  0  0  0  0  0  0
   32.0979    4.4489    9.4880 H   0  0  0  0  0  0  0  0  0  0  0  0
   30.4485    2.9782    9.5043 H   0  0  0  0  0  0  0  0  0  0  0  0
   30.0118    3.1195    7.7314 H   0  0  0  0  0  0  0  0  0  0  0  0
   30.4795    5.0297   10.6853 H   0  0  0  0  0  0  0  0  0  0  0  0
   29.8609    6.5465    9.9804 H   0  0  0  0  0  0  0  0  0  0  0  0
   28.7591    5.4663   10.9807 H   0  0  0  0  0  0  0  0  0  0  0  0
   28.7385    6.5493    7.8853 H   0  0  0  0  0  0  0  0  0  0  0  0
   30.1579    5.6045    7.2421 H   0  0  0  0  0  0  0  0  0  0  0  0
   28.5323    4.9850    6.9764 H   0  0  0  0  0  0  0  0  0  0  0  0
   28.2616    2.1697    9.6475 H   0  0  0  0  0  0  0  0  0  0  0  0
   26.8648    0.6852   10.3272 H   0  0  0  0  0  0  0  0  0  0  0  0
   25.1681    0.9071   10.5673 H   0  0  0  0  0  0  0  0  0  0  0  0
   25.8980    0.2854    8.9362 H   0  0  0  0  0  0  0  0  0  0  0  0
   27.0022    6.0540    8.4539 H   0  0  0  0  0  0  0  0  0  0  0  0
   22.9592    7.2568    7.4779 H   0  0  0  0  0  0  0  0  0  0  0  0
   22.9011    5.8603    6.3659 H   0  0  0  0  0  0  0  0  0  0  0  0
   21.4266    6.2569    7.3773 H   0  0  0  0  0  0  0  0  0  0  0  0
   21.4959    5.5246    9.7356 H   0  0  0  0  0  0  0  0  0  0  0  0
   22.8838    6.6077   10.0905 H   0  0  0  0  0  0  0  0  0  0  0  0
   22.9506    4.8210   10.4688 H   0  0  0  0  0  0  0  0  0  0  0  0
   23.3242    3.8130    6.8867 H   0  0  0  0  0  0  0  0  0  0  0  0
   21.0473    4.2904    7.3626 H   0  0  0  0  0  0  0  0  0  0  0  0
   21.2059    3.6397    9.0945 H   0  0  0  0  0  0  0  0  0  0  0  0
   20.3195    1.9238    7.2330 H   0  0  0  0  0  0  0  0  0  0  0  0
   20.9120   -0.2490    6.8268 H   0  0  0  0  0  0  0  0  0  0  0  0
   22.0789   -0.8764    8.0613 H   0  0  0  0  0  0  0  0  0  0  0  0
   23.8030   -0.5668    6.6004 H   0  0  0  0  0  0  0  0  0  0  0  0
   23.7462    0.7685    8.8677 H   0  0  0  0  0  0  0  0  0  0  0  0
   24.3014    1.4726    7.2256 H   0  0  0  0  0  0  0  0  0  0  0  0
   23.3304    2.8145    9.8152 H   0  0  0  0  0  0  0  0  0  0  0  0
  1  2  1  0
  2  3  1  0
  3  4  1  0
  4  5  1  0
  5  6  1  0
  6  7  1  0
  7  8  1  0
  7  9  1  0
  7 10  1  0
 10 11  2  0
 11 12  1  0
 12 13  1  0
 12 14  2  0
 14 15  1  0
 15 16  2  0
 15 17  1  0
 17 18  1  0
 18 19  1  0
 18 20  1  0
 18 21  1  0
 21 22  1  0
 22 23  1  0
 23 24  2  0
 24 25  1  0
 25 26  1  0
 24 27  1  0
 27 28  1  0
 16 10  1  0
 28 21  1  0
 28 14  1  0
  1 29  1  0
  1 30  1  0
  1 31  1  0
  2 32  1  0
  2 33  1  0
  3 34  1  0
  3 35  1  0
  4 36  1  0
  4 37  1  0
  5 38  1  0
  5 39  1  0
  6 40  1  0
  6 41  1  0
  8 42  1  0
  8 43  1  0
  8 44  1  0
  9 45  1  0
  9 46  1  0
  9 47  1  0
 11 48  1  0
 13 49  1  0
 13 50  1  0
 13 51  1  0
 16 52  1  0
 19 53  1  0
 19 54  1  0
 19 55  1  0
 20 56  1  0
 20 57  1  0
 20 58  1  0
 21 59  1  6
 22 60  1  0
 22 61  1  0
 23 62  1  0
 25 63  1  0
 25 64  1  0
 26 65  1  0
 27 66  1  0
 27 67  1  0
 28 68  1  1
M  END
$$$$
