
     RDKit          3D

 58 62  0  0  0  0  0  0  0  0999 V2000
   25.5200   -0.6894    3.8352 O   0  0  0  0  0  0  0  0  0  0  0  0
   25.6704    0.4302    3.2403 C   0  0  0  0  0  0  0  0  0  0  0  0
   24.4946    1.0389    2.7844 N   0  0  0  0  0  0  0  0  0  0  0  0
   23.1712    0.4698    2.9718 C   0  0  0  0  0  0  0  0  0  0  0  0
   22.8493    0.3340    4.4230 C   0  0  0  0  0  0  0  0  0  0  0  0
   21.4277   -0.1286    4.6521 C   0  0  0  0  0  0  0  0  0  0  0  0
   20.4701    0.8494    4.0465 C   0  0  0  0  0  0  0  0  0  0  0  0
   20.7531    0.8700    2.5502 C   0  0  0  0  0  0  0  0  0  0  0  0
   20.5711   -0.4947    1.9622 C   0  0  0  0  0  0  0  0  0  0  0  0
   21.6395   -1.3919    2.5534 C   0  0  0  0  0  0  0  0  0  0  0  0
   21.3402   -1.5152    4.0187 C   0  0  0  0  0  0  0  0  0  0  0  0
   23.0153   -0.8754    2.2934 C   0  0  0  0  0  0  0  0  0  0  0  0
   22.1350    1.3799    2.3283 C   0  0  0  0  0  0  0  0  0  0  0  0
   27.0326    0.8942    3.1265 C   0  0  0  0  0  0  0  0  0  0  0  0
   28.0806    0.0699    3.3608 N   0  0  0  0  0  0  0  0  0  0  0  0
   29.2110    0.7289    3.2106 N   0  0  0  0  0  0  0  0  0  0  0  0
   30.5680    0.1261    3.3933 C   0  0  0  0  0  0  0  0  0  0  0  0
   31.0059    0.2691    4.7989 C   0  0  0  0  0  0  0  0  0  0  0  0
   32.2732   -0.2668    5.2618 C   0  0  0  0  0  0  0  0  0  0  0  0
   33.5996    0.0887    4.8386 C   0  0  0  0  0  0  0  0  0  0  0  0
   34.1612   -0.0425    3.4999 C   0  0  0  0  0  0  0  0  0  0  0  0
   33.6373    0.6384    2.4633 F   0  0  0  0  0  0  0  0  0  0  0  0
   28.9851    2.0080    2.8743 C   0  0  0  0  0  0  0  0  0  0  0  0
   29.8031    3.0864    2.6182 C   0  0  0  0  0  0  0  0  0  0  0  0
   29.2687    4.3197    2.2987 C   0  0  0  0  0  0  0  0  0  0  0  0
   27.8915    4.4008    2.2539 C   0  0  0  0  0  0  0  0  0  0  0  0
   27.0793    3.3226    2.5098 C   0  0  0  0  0  0  0  0  0  0  0  0
   27.5896    2.1044    2.8236 C   0  0  0  0  0  0  0  0  0  0  0  0
   24.5452    1.9292    2.2702 H   0  0  0  0  0  0  0  0  0  0  0  0
   23.5031   -0.4339    4.8789 H   0  0  0  0  0  0  0  0  0  0  0  0
   23.0764    1.2846    4.9567 H   0  0  0  0  0  0  0  0  0  0  0  0
   21.2978   -0.2067    5.7558 H   0  0  0  0  0  0  0  0  0  0  0  0
   20.6918    1.8342    4.4694 H   0  0  0  0  0  0  0  0  0  0  0  0
   19.4316    0.5221    4.2450 H   0  0  0  0  0  0  0  0  0  0  0  0
   20.0528    1.6180    2.1038 H   0  0  0  0  0  0  0  0  0  0  0  0
   20.5975   -0.4357    0.8645 H   0  0  0  0  0  0  0  0  0  0  0  0
   19.5898   -0.8776    2.3370 H   0  0  0  0  0  0  0  0  0  0  0  0
   21.5411   -2.4036    2.0867 H   0  0  0  0  0  0  0  0  0  0  0  0
   22.0459   -2.1590    4.5616 H   0  0  0  0  0  0  0  0  0  0  0  0
   20.2822   -1.8422    4.1309 H   0  0  0  0  0  0  0  0  0  0  0  0
   23.7492   -1.6068    2.6270 H   0  0  0  0  0  0  0  0  0  0  0  0
   23.1489   -0.6996    1.2097 H   0  0  0  0  0  0  0  0  0  0  0  0
   22.3049    1.4795    1.2274 H   0  0  0  0  0  0  0  0  0  0  0  0
   22.2156    2.4037    2.7543 H   0  0  0  0  0  0  0  0  0  0  0  0
   31.1609    0.6198    2.6223 H   0  0  0  0  0  0  0  0  0  0  0  0
   30.4347   -0.9660    3.2108 H   0  0  0  0  0  0  0  0  0  0  0  0
   30.8456    1.3394    5.1780 H   0  0  0  0  0  0  0  0  0  0  0  0
   30.1940   -0.2632    5.4122 H   0  0  0  0  0  0  0  0  0  0  0  0
   32.1403   -1.4227    5.2418 H   0  0  0  0  0  0  0  0  0  0  0  0
   32.2594   -0.1336    6.4144 H   0  0  0  0  0  0  0  0  0  0  0  0
   34.3273   -0.4830    5.5287 H   0  0  0  0  0  0  0  0  0  0  0  0
   33.8602    1.1657    5.1713 H   0  0  0  0  0  0  0  0  0  0  0  0
   34.3883   -1.1288    3.2120 H   0  0  0  0  0  0  0  0  0  0  0  0
   35.2335    0.3492    3.5812 H   0  0  0  0  0  0  0  0  0  0  0  0
   30.8633    2.9514    2.6712 H   0  0  0  0  0  0  0  0  0  0  0  0
   29.8786    5.1885    2.0911 H   0  0  0  0  0  0  0  0  0  0  0  0
   27.4547    5.3471    2.0088 H   0  0  0  0  0  0  0  0  0  0  0  0
   26.0291    3.4589    2.4725 H   0  0  0  0  0  0  0  0  0  0  0  0
  1  2  2  0
  2  3  1  0
  3  4  1  0
  4  5  1  0
  5  6  1  0
  6  7  1  0
  7  8  1  0
  8  9  1  0
  9 10  1  0
 10 11  1  0
 10 12  1  0
  8 13  1  0
  2 14  1  0
 14 15  2  0
 15 16  1  0
 16 17  1  0
 17 18  1  0
 18 19  1  0
 19 20  1  0
 20 21  1  0
 21 22  1  0
 16 23  1  0
 23 24  2  0
 24 25  1  0
 25 26  2  0
 26 27  1  0
 27 28  2  0
 12  4  1  0
 28 14  1  0
 13  4  1  0
 28 23  1  0
 11  6  1  0
  3 29  1  0
  5 30  1  0
  5 31  1  0
  6 32  1  0
  7 33  1  0
  7 34  1  0
  8 35  1  0
  9 36  1  0
  9 37  1  0
 10 38  1  0
 11 39  1  0
 11 40  1  0
 12 41  1  0
 12 42  1  0
 13 43  1  0
 13 44  1  0
 17 45  1  0
 17 46  1  0
 18 47  1  0
 18 48  1  0
 19 49  1  0
 19 50  1  0
 20 51  1  0
 20 52  1  0
 21 53  1  0
 21 54  1  0
 24 55  1  0
 25 56  1  0
 26 57  1  0
 27 58  1  0
M  END
$$$$
