
     RDKit          3D

 58 62  0  0  0  0  0  0  0  0999 V2000
   27.0928   -0.4858    3.4932 O   0  0  0  0  0  0  0  0  0  0  0  0
   26.9673    0.7929    3.4147 C   0  0  0  0  0  0  0  0  0  0  0  0
   25.6606    1.2665    3.3966 N   0  0  0  0  0  0  0  0  0  0  0  0
   24.5124    0.3844    3.4685 C   0  0  0  0  0  0  0  0  0  0  0  0
   24.4380   -0.4580    4.6866 C   0  0  0  0  0  0  0  0  0  0  0  0
   23.1839   -1.2844    4.6357 C   0  0  0  0  0  0  0  0  0  0  0  0
   21.9183   -0.5077    4.5303 C   0  0  0  0  0  0  0  0  0  0  0  0
   22.0311    0.3566    3.2770 C   0  0  0  0  0  0  0  0  0  0  0  0
   22.0598   -0.5738    2.1073 C   0  0  0  0  0  0  0  0  0  0  0  0
   23.3197   -1.4096    2.1919 C   0  0  0  0  0  0  0  0  0  0  0  0
   23.2965   -2.2138    3.4495 C   0  0  0  0  0  0  0  0  0  0  0  0
   24.4810   -0.4399    2.2041 C   0  0  0  0  0  0  0  0  0  0  0  0
   23.2298    1.2345    3.4220 C   0  0  0  0  0  0  0  0  0  0  0  0
   28.2095    1.5222    3.3557 C   0  0  0  0  0  0  0  0  0  0  0  0
   29.3942    0.8749    3.1649 N   0  0  0  0  0  0  0  0  0  0  0  0
   30.3948    1.7401    3.1584 N   0  0  0  0  0  0  0  0  0  0  0  0
   31.7935    1.4167    2.9808 C   0  0  0  0  0  0  0  0  0  0  0  0
   32.5161    1.1336    4.2498 C   0  0  0  0  0  0  0  0  0  0  0  0
   31.9711   -0.0205    5.0399 C   0  0  0  0  0  0  0  0  0  0  0  0
   32.0049   -1.3205    4.2828 C   0  0  0  0  0  0  0  0  0  0  0  0
   31.4318   -2.4043    5.1809 C   0  0  0  0  0  0  0  0  0  0  0  0
   30.1265   -2.1059    5.5335 F   0  0  0  0  0  0  0  0  0  0  0  0
   29.9365    2.9887    3.3421 C   0  0  0  0  0  0  0  0  0  0  0  0
   30.5485    4.2159    3.4214 C   0  0  0  0  0  0  0  0  0  0  0  0
   29.8025    5.3616    3.6311 C   0  0  0  0  0  0  0  0  0  0  0  0
   28.4380    5.1900    3.7521 C   0  0  0  0  0  0  0  0  0  0  0  0
   27.8269    3.9626    3.6725 C   0  0  0  0  0  0  0  0  0  0  0  0
   28.5506    2.8314    3.4656 C   0  0  0  0  0  0  0  0  0  0  0  0
   25.4759    2.2729    3.3165 H   0  0  0  0  0  0  0  0  0  0  0  0
   24.3549    0.1715    5.5901 H   0  0  0  0  0  0  0  0  0  0  0  0
   25.2718   -1.1849    4.7415 H   0  0  0  0  0  0  0  0  0  0  0  0
   23.1416   -1.8610    5.5882 H   0  0  0  0  0  0  0  0  0  0  0  0
   21.0979   -1.2450    4.4124 H   0  0  0  0  0  0  0  0  0  0  0  0
   21.7094    0.1486    5.3793 H   0  0  0  0  0  0  0  0  0  0  0  0
   21.1360    1.0174    3.2463 H   0  0  0  0  0  0  0  0  0  0  0  0
   22.0804   -0.0401    1.1423 H   0  0  0  0  0  0  0  0  0  0  0  0
   21.1951   -1.2592    2.2202 H   0  0  0  0  0  0  0  0  0  0  0  0
   23.4491   -2.0739    1.3374 H   0  0  0  0  0  0  0  0  0  0  0  0
   22.5418   -3.0060    3.4209 H   0  0  0  0  0  0  0  0  0  0  0  0
   24.2819   -2.7326    3.5648 H   0  0  0  0  0  0  0  0  0  0  0  0
   24.2855    0.2750    1.3520 H   0  0  0  0  0  0  0  0  0  0  0  0
   25.4333   -0.9256    1.9454 H   0  0  0  0  0  0  0  0  0  0  0  0
   23.2768    1.9690    2.6044 H   0  0  0  0  0  0  0  0  0  0  0  0
   23.1279    1.7755    4.3796 H   0  0  0  0  0  0  0  0  0  0  0  0
   32.3171    2.2771    2.5069 H   0  0  0  0  0  0  0  0  0  0  0  0
   31.9461    0.5555    2.2660 H   0  0  0  0  0  0  0  0  0  0  0  0
   33.5680    0.9317    3.9996 H   0  0  0  0  0  0  0  0  0  0  0  0
   32.5120    2.0072    4.9082 H   0  0  0  0  0  0  0  0  0  0  0  0
   32.6583   -0.1511    5.9164 H   0  0  0  0  0  0  0  0  0  0  0  0
   30.9708    0.1711    5.4599 H   0  0  0  0  0  0  0  0  0  0  0  0
   31.4020   -1.3105    3.3718 H   0  0  0  0  0  0  0  0  0  0  0  0
   33.0610   -1.5859    4.0790 H   0  0  0  0  0  0  0  0  0  0  0  0
   31.9930   -2.4915    6.1347 H   0  0  0  0  0  0  0  0  0  0  0  0
   31.4873   -3.4047    4.6712 H   0  0  0  0  0  0  0  0  0  0  0  0
   31.6217    4.3248    3.3234 H   0  0  0  0  0  0  0  0  0  0  0  0
   30.2405    6.3478    3.7002 H   0  0  0  0  0  0  0  0  0  0  0  0
   27.8388    6.0751    3.9169 H   0  0  0  0  0  0  0  0  0  0  0  0
   26.7836    3.9055    3.7848 H   0  0  0  0  0  0  0  0  0  0  0  0
  1  2  2  0
  2  3  1  0
  3  4  1  0
  4  5  1  0
  5  6  1  0
  6  7  1  0
  7  8  1  0
  8  9  1  0
  9 10  1  0
 10 11  1  0
 10 12  1  0
  8 13  1  0
  2 14  1  0
 14 15  2  0
 15 16  1  0
 16 17  1  0
 17 18  1  0
 18 19  1  0
 19 20  1  0
 20 21  1  0
 21 22  1  0
 16 23  1  0
 23 24  2  0
 24 25  1  0
 25 26  2  0
 26 27  1  0
 27 28  2  0
 12  4  1  0
 28 14  1  0
 13  4  1  0
 28 23  1  0
 11  6  1  0
  3 29  1  0
  5 30  1  0
  5 31  1  0
  6 32  1  0
  7 33  1  0
  7 34  1  0
  8 35  1  0
  9 36  1  0
  9 37  1  0
 10 38  1  0
 11 39  1  0
 11 40  1  0
 12 41  1  0
 12 42  1  0
 13 43  1  0
 13 44  1  0
 17 45  1  0
 17 46  1  0
 18 47  1  0
 18 48  1  0
 19 49  1  0
 19 50  1  0
 20 51  1  0
 20 52  1  0
 21 53  1  0
 21 54  1  0
 24 55  1  0
 25 56  1  0
 26 57  1  0
 27 58  1  0
M  END
$$$$
