
     RDKit          3D

 58 62  0  0  0  0  0  0  0  0999 V2000
   25.3970   -0.8352    3.9618 O   0  0  0  0  0  0  0  0  0  0  0  0
   25.5032    0.4414    4.1127 C   0  0  0  0  0  0  0  0  0  0  0  0
   24.2946    1.1430    4.0655 N   0  0  0  0  0  0  0  0  0  0  0  0
   23.0018    0.5033    3.8578 C   0  0  0  0  0  0  0  0  0  0  0  0
   22.7414   -0.4494    4.9713 C   0  0  0  0  0  0  0  0  0  0  0  0
   21.3909   -1.1161    4.7761 C   0  0  0  0  0  0  0  0  0  0  0  0
   21.4788   -1.8591    3.4590 C   0  0  0  0  0  0  0  0  0  0  0  0
   21.6542   -0.8829    2.3405 C   0  0  0  0  0  0  0  0  0  0  0  0
   20.5244    0.1236    2.3595 C   0  0  0  0  0  0  0  0  0  0  0  0
   20.5921    0.9060    3.6299 C   0  0  0  0  0  0  0  0  0  0  0  0
   20.3358   -0.0567    4.7940 C   0  0  0  0  0  0  0  0  0  0  0  0
   21.9190    1.5532    3.8698 C   0  0  0  0  0  0  0  0  0  0  0  0
   22.9557   -0.1469    2.4955 C   0  0  0  0  0  0  0  0  0  0  0  0
   26.8378    0.9283    4.3062 C   0  0  0  0  0  0  0  0  0  0  0  0
   27.8792    0.0657    4.5406 N   0  0  0  0  0  0  0  0  0  0  0  0
   29.0060    0.7270    4.6739 N   0  0  0  0  0  0  0  0  0  0  0  0
   30.3006    0.1259    4.9305 C   0  0  0  0  0  0  0  0  0  0  0  0
   30.9144   -0.1594    3.5833 C   0  0  0  0  0  0  0  0  0  0  0  0
   32.2646   -0.7860    3.6480 C   0  0  0  0  0  0  0  0  0  0  0  0
   33.2851    0.0623    4.3655 C   0  0  0  0  0  0  0  0  0  0  0  0
   34.5980   -0.6885    4.3568 C   0  0  0  0  0  0  0  0  0  0  0  0
   35.0784   -0.9611    3.1088 F   0  0  0  0  0  0  0  0  0  0  0  0
   28.8015    2.0470    4.5403 C   0  0  0  0  0  0  0  0  0  0  0  0
   29.6271    3.1477    4.5846 C   0  0  0  0  0  0  0  0  0  0  0  0
   29.1159    4.4161    4.3970 C   0  0  0  0  0  0  0  0  0  0  0  0
   27.7569    4.5058    4.1676 C   0  0  0  0  0  0  0  0  0  0  0  0
   26.9359    3.4068    4.1242 C   0  0  0  0  0  0  0  0  0  0  0  0
   27.4251    2.1592    4.3075 C   0  0  0  0  0  0  0  0  0  0  0  0
   24.2927    2.1595    4.1943 H   0  0  0  0  0  0  0  0  0  0  0  0
   23.4618   -1.2465    5.1223 H   0  0  0  0  0  0  0  0  0  0  0  0
   22.6698    0.1720    5.9077 H   0  0  0  0  0  0  0  0  0  0  0  0
   21.2020   -1.8290    5.6040 H   0  0  0  0  0  0  0  0  0  0  0  0
   20.6413   -2.5484    3.3205 H   0  0  0  0  0  0  0  0  0  0  0  0
   22.4302   -2.4582    3.5128 H   0  0  0  0  0  0  0  0  0  0  0  0
   21.6000   -1.4079    1.3695 H   0  0  0  0  0  0  0  0  0  0  0  0
   20.5493    0.7472    1.4623 H   0  0  0  0  0  0  0  0  0  0  0  0
   19.5544   -0.4179    2.3482 H   0  0  0  0  0  0  0  0  0  0  0  0
   19.8205    1.7024    3.6452 H   0  0  0  0  0  0  0  0  0  0  0  0
   19.3200   -0.4523    4.6234 H   0  0  0  0  0  0  0  0  0  0  0  0
   20.3862    0.4476    5.7641 H   0  0  0  0  0  0  0  0  0  0  0  0
   21.9152    2.0051    4.8696 H   0  0  0  0  0  0  0  0  0  0  0  0
   22.1658    2.2742    3.0584 H   0  0  0  0  0  0  0  0  0  0  0  0
   22.9564    0.6953    1.7466 H   0  0  0  0  0  0  0  0  0  0  0  0
   23.8110   -0.7724    2.2502 H   0  0  0  0  0  0  0  0  0  0  0  0
   30.1263   -0.7920    5.5205 H   0  0  0  0  0  0  0  0  0  0  0  0
   30.8797    0.8144    5.5470 H   0  0  0  0  0  0  0  0  0  0  0  0
   30.2451   -0.9202    3.0919 H   0  0  0  0  0  0  0  0  0  0  0  0
   30.8856    0.7163    2.9359 H   0  0  0  0  0  0  0  0  0  0  0  0
   32.2308   -1.8370    4.0019 H   0  0  0  0  0  0  0  0  0  0  0  0
   32.6300   -0.8573    2.5968 H   0  0  0  0  0  0  0  0  0  0  0  0
   33.4094    0.9847    3.7728 H   0  0  0  0  0  0  0  0  0  0  0  0
   33.0369    0.2857    5.4089 H   0  0  0  0  0  0  0  0  0  0  0  0
   35.3470   -0.0034    4.8437 H   0  0  0  0  0  0  0  0  0  0  0  0
   34.5698   -1.5995    4.9695 H   0  0  0  0  0  0  0  0  0  0  0  0
   30.6793    2.9854    4.7695 H   0  0  0  0  0  0  0  0  0  0  0  0
   29.7706    5.2829    4.4328 H   0  0  0  0  0  0  0  0  0  0  0  0
   27.3506    5.4932    4.0198 H   0  0  0  0  0  0  0  0  0  0  0  0
   25.9053    3.5491    3.9328 H   0  0  0  0  0  0  0  0  0  0  0  0
  1  2  2  0
  2  3  1  0
  3  4  1  0
  4  5  1  0
  5  6  1  0
  6  7  1  0
  7  8  1  0
  8  9  1  0
  9 10  1  0
 10 11  1  0
 10 12  1  0
  8 13  1  0
  2 14  1  0
 14 15  2  0
 15 16  1  0
 16 17  1  0
 17 18  1  0
 18 19  1  0
 19 20  1  0
 20 21  1  0
 21 22  1  0
 16 23  1  0
 23 24  2  0
 24 25  1  0
 25 26  2  0
 26 27  1  0
 27 28  2  0
 12  4  1  0
 28 14  1  0
 13  4  1  0
 28 23  1  0
 11  6  1  0
  3 29  1  0
  5 30  1  0
  5 31  1  0
  6 32  1  0
  7 33  1  0
  7 34  1  0
  8 35  1  0
  9 36  1  0
  9 37  1  0
 10 38  1  0
 11 39  1  0
 11 40  1  0
 12 41  1  0
 12 42  1  0
 13 43  1  0
 13 44  1  0
 17 45  1  0
 17 46  1  0
 18 47  1  0
 18 48  1  0
 19 49  1  0
 19 50  1  0
 20 51  1  0
 20 52  1  0
 21 53  1  0
 21 54  1  0
 24 55  1  0
 25 56  1  0
 26 57  1  0
 27 58  1  0
M  END
$$$$
