
     RDKit          3D

 58 62  0  0  0  0  0  0  0  0999 V2000
   25.3210    2.3060    3.8543 O   0  0  0  0  0  0  0  0  0  0  0  0
   26.1291    1.3343    3.6902 C   0  0  0  0  0  0  0  0  0  0  0  0
   25.6221    0.0428    3.4698 N   0  0  0  0  0  0  0  0  0  0  0  0
   24.2212   -0.2995    3.4094 C   0  0  0  0  0  0  0  0  0  0  0  0
   24.0464   -1.7879    3.1561 C   0  0  0  0  0  0  0  0  0  0  0  0
   22.6035   -2.1613    3.2370 C   0  0  0  0  0  0  0  0  0  0  0  0
   21.8776   -1.3808    2.1624 C   0  0  0  0  0  0  0  0  0  0  0  0
   21.9938    0.0663    2.5156 C   0  0  0  0  0  0  0  0  0  0  0  0
   21.4354    0.4013    3.8778 C   0  0  0  0  0  0  0  0  0  0  0  0
   22.1924   -0.4013    4.8994 C   0  0  0  0  0  0  0  0  0  0  0  0
   22.0273   -1.8665    4.6004 C   0  0  0  0  0  0  0  0  0  0  0  0
   23.6490   -0.0143    4.7831 C   0  0  0  0  0  0  0  0  0  0  0  0
   23.4460    0.5020    2.3922 C   0  0  0  0  0  0  0  0  0  0  0  0
   27.5707    1.5681    3.7322 C   0  0  0  0  0  0  0  0  0  0  0  0
   28.5799    0.7144    3.5887 N   0  0  0  0  0  0  0  0  0  0  0  0
   29.7480    1.3439    3.6974 N   0  0  0  0  0  0  0  0  0  0  0  0
   31.0903    0.6893    3.5884 C   0  0  0  0  0  0  0  0  0  0  0  0
   31.5279    0.2424    4.9190 C   0  0  0  0  0  0  0  0  0  0  0  0
   32.8687   -0.3843    4.9474 C   0  0  0  0  0  0  0  0  0  0  0  0
   33.1955   -1.6317    4.2718 C   0  0  0  0  0  0  0  0  0  0  0  0
   33.0729   -1.7971    2.8149 C   0  0  0  0  0  0  0  0  0  0  0  0
   33.5659   -3.1087    2.5305 F   0  0  0  0  0  0  0  0  0  0  0  0
   29.5517    2.6577    3.9203 C   0  0  0  0  0  0  0  0  0  0  0  0
   30.4172    3.7155    4.1013 C   0  0  0  0  0  0  0  0  0  0  0  0
   29.8886    4.9705    4.3137 C   0  0  0  0  0  0  0  0  0  0  0  0
   28.5124    5.1762    4.3465 C   0  0  0  0  0  0  0  0  0  0  0  0
   27.6793    4.0812    4.1593 C   0  0  0  0  0  0  0  0  0  0  0  0
   28.1730    2.8102    3.9441 C   0  0  0  0  0  0  0  0  0  0  0  0
   26.3395   -0.7309    3.3393 H   0  0  0  0  0  0  0  0  0  0  0  0
   24.5714   -2.3265    3.9683 H   0  0  0  0  0  0  0  0  0  0  0  0
   24.4691   -2.1291    2.2031 H   0  0  0  0  0  0  0  0  0  0  0  0
   22.4930   -3.2324    2.9766 H   0  0  0  0  0  0  0  0  0  0  0  0
   22.4665   -1.5265    1.2252 H   0  0  0  0  0  0  0  0  0  0  0  0
   20.8626   -1.7242    1.9606 H   0  0  0  0  0  0  0  0  0  0  0  0
   21.3683    0.6250    1.7771 H   0  0  0  0  0  0  0  0  0  0  0  0
   20.3647    0.1804    3.8658 H   0  0  0  0  0  0  0  0  0  0  0  0
   21.6568    1.4658    4.0749 H   0  0  0  0  0  0  0  0  0  0  0  0
   21.8744   -0.1413    5.9175 H   0  0  0  0  0  0  0  0  0  0  0  0
   20.9460   -2.0917    4.6128 H   0  0  0  0  0  0  0  0  0  0  0  0
   22.5082   -2.5182    5.3296 H   0  0  0  0  0  0  0  0  0  0  0  0
   24.2418   -0.5733    5.5578 H   0  0  0  0  0  0  0  0  0  0  0  0
   23.7316    1.0560    5.0272 H   0  0  0  0  0  0  0  0  0  0  0  0
   23.4575    1.5593    2.6574 H   0  0  0  0  0  0  0  0  0  0  0  0
   23.7490    0.2718    1.3690 H   0  0  0  0  0  0  0  0  0  0  0  0
   30.9323   -0.0846    2.8328 H   0  0  0  0  0  0  0  0  0  0  0  0
   31.8040    1.4115    3.1487 H   0  0  0  0  0  0  0  0  0  0  0  0
   30.7538   -0.3866    5.4467 H   0  0  0  0  0  0  0  0  0  0  0  0
   31.6385    1.1860    5.5615 H   0  0  0  0  0  0  0  0  0  0  0  0
   33.6486    0.4371    4.6743 H   0  0  0  0  0  0  0  0  0  0  0  0
   33.1961   -0.5375    6.0525 H   0  0  0  0  0  0  0  0  0  0  0  0
   34.3021   -1.8391    4.5124 H   0  0  0  0  0  0  0  0  0  0  0  0
   32.6062   -2.4654    4.7703 H   0  0  0  0  0  0  0  0  0  0  0  0
   33.6047   -1.1013    2.1799 H   0  0  0  0  0  0  0  0  0  0  0  0
   31.9999   -1.8906    2.4708 H   0  0  0  0  0  0  0  0  0  0  0  0
   31.4836    3.5160    4.0691 H   0  0  0  0  0  0  0  0  0  0  0  0
   30.5962    5.7767    4.4517 H   0  0  0  0  0  0  0  0  0  0  0  0
   28.1237    6.1772    4.5160 H   0  0  0  0  0  0  0  0  0  0  0  0
   26.6092    4.2639    4.1887 H   0  0  0  0  0  0  0  0  0  0  0  0
  1  2  2  0
  2  3  1  0
  3  4  1  0
  4  5  1  0
  5  6  1  0
  6  7  1  0
  7  8  1  0
  8  9  1  0
  9 10  1  0
 10 11  1  0
 10 12  1  0
  8 13  1  0
  2 14  1  0
 14 15  2  0
 15 16  1  0
 16 17  1  0
 17 18  1  0
 18 19  1  0
 19 20  1  0
 20 21  1  0
 21 22  1  0
 16 23  1  0
 23 24  2  0
 24 25  1  0
 25 26  2  0
 26 27  1  0
 27 28  2  0
 12  4  1  0
 28 14  1  0
 13  4  1  0
 28 23  1  0
 11  6  1  0
  3 29  1  0
  5 30  1  0
  5 31  1  0
  6 32  1  0
  7 33  1  0
  7 34  1  0
  8 35  1  0
  9 36  1  0
  9 37  1  0
 10 38  1  0
 11 39  1  0
 11 40  1  0
 12 41  1  0
 12 42  1  0
 13 43  1  0
 13 44  1  0
 17 45  1  0
 17 46  1  0
 18 47  1  0
 18 48  1  0
 19 49  1  0
 19 50  1  0
 20 51  1  0
 20 52  1  0
 21 53  1  0
 21 54  1  0
 24 55  1  0
 25 56  1  0
 26 57  1  0
 27 58  1  0
M  END
$$$$
