
     RDKit          3D

 58 62  0  0  0  0  0  0  0  0999 V2000
   26.2187   -0.6394    3.6714 O   0  0  0  0  0  0  0  0  0  0  0  0
   26.1691    0.6345    3.7466 C   0  0  0  0  0  0  0  0  0  0  0  0
   24.8926    1.1958    3.7068 N   0  0  0  0  0  0  0  0  0  0  0  0
   23.6769    0.4073    3.6011 C   0  0  0  0  0  0  0  0  0  0  0  0
   22.5126    1.3901    3.5516 C   0  0  0  0  0  0  0  0  0  0  0  0
   21.1925    0.6683    3.6300 C   0  0  0  0  0  0  0  0  0  0  0  0
   21.0795   -0.2233    2.4277 C   0  0  0  0  0  0  0  0  0  0  0  0
   22.2412   -1.1668    2.4497 C   0  0  0  0  0  0  0  0  0  0  0  0
   22.0931   -2.0304    3.6732 C   0  0  0  0  0  0  0  0  0  0  0  0
   22.2189   -1.1605    4.9050 C   0  0  0  0  0  0  0  0  0  0  0  0
   21.1760   -0.0814    4.9447 C   0  0  0  0  0  0  0  0  0  0  0  0
   23.5868   -0.4654    4.8353 C   0  0  0  0  0  0  0  0  0  0  0  0
   23.5869   -0.4496    2.3947 C   0  0  0  0  0  0  0  0  0  0  0  0
   27.4480    1.2906    3.8580 C   0  0  0  0  0  0  0  0  0  0  0  0
   28.6100    0.6183    3.6305 N   0  0  0  0  0  0  0  0  0  0  0  0
   29.6480    1.4185    3.8070 N   0  0  0  0  0  0  0  0  0  0  0  0
   31.0456    1.0599    3.6547 C   0  0  0  0  0  0  0  0  0  0  0  0
   31.6891    0.5526    4.8982 C   0  0  0  0  0  0  0  0  0  0  0  0
   33.1269    0.1850    4.7365 C   0  0  0  0  0  0  0  0  0  0  0  0
   33.3974   -0.8838    3.7333 C   0  0  0  0  0  0  0  0  0  0  0  0
   32.7295   -2.1935    4.0216 C   0  0  0  0  0  0  0  0  0  0  0  0
   33.1580   -2.6897    5.2545 F   0  0  0  0  0  0  0  0  0  0  0  0
   29.2232    2.6433    4.1564 C   0  0  0  0  0  0  0  0  0  0  0  0
   29.9143    3.7989    4.4511 C   0  0  0  0  0  0  0  0  0  0  0  0
   29.2173    4.9450    4.7997 C   0  0  0  0  0  0  0  0  0  0  0  0
   27.8432    4.8411    4.8270 C   0  0  0  0  0  0  0  0  0  0  0  0
   27.1580    3.6857    4.5320 C   0  0  0  0  0  0  0  0  0  0  0  0
   27.8451    2.5539    4.1864 C   0  0  0  0  0  0  0  0  0  0  0  0
   24.7869    2.2138    3.7367 H   0  0  0  0  0  0  0  0  0  0  0  0
   22.6114    2.2230    4.2528 H   0  0  0  0  0  0  0  0  0  0  0  0
   22.5551    1.8081    2.5032 H   0  0  0  0  0  0  0  0  0  0  0  0
   20.3690    1.3821    3.6230 H   0  0  0  0  0  0  0  0  0  0  0  0
   20.1675   -0.8326    2.4273 H   0  0  0  0  0  0  0  0  0  0  0  0
   21.1326    0.4001    1.5370 H   0  0  0  0  0  0  0  0  0  0  0  0
   22.1951   -1.7592    1.5165 H   0  0  0  0  0  0  0  0  0  0  0  0
   22.8360   -2.8313    3.7340 H   0  0  0  0  0  0  0  0  0  0  0  0
   21.0815   -2.4528    3.6434 H   0  0  0  0  0  0  0  0  0  0  0  0
   22.2174   -1.7416    5.8390 H   0  0  0  0  0  0  0  0  0  0  0  0
   20.1804   -0.4189    5.2349 H   0  0  0  0  0  0  0  0  0  0  0  0
   21.5029    0.6628    5.7136 H   0  0  0  0  0  0  0  0  0  0  0  0
   24.3054   -1.2998    4.7130 H   0  0  0  0  0  0  0  0  0  0  0  0
   23.7595    0.1042    5.7667 H   0  0  0  0  0  0  0  0  0  0  0  0
   23.5836    0.0957    1.4394 H   0  0  0  0  0  0  0  0  0  0  0  0
   24.3383   -1.2482    2.4482 H   0  0  0  0  0  0  0  0  0  0  0  0
   31.5820    1.9525    3.2727 H   0  0  0  0  0  0  0  0  0  0  0  0
   31.1471    0.2889    2.8402 H   0  0  0  0  0  0  0  0  0  0  0  0
   31.6117    1.3085    5.6892 H   0  0  0  0  0  0  0  0  0  0  0  0
   31.1435   -0.3438    5.2608 H   0  0  0  0  0  0  0  0  0  0  0  0
   33.4819   -0.2026    5.7240 H   0  0  0  0  0  0  0  0  0  0  0  0
   33.7749    1.0486    4.4929 H   0  0  0  0  0  0  0  0  0  0  0  0
   33.1828   -0.5848    2.6886 H   0  0  0  0  0  0  0  0  0  0  0  0
   34.4992   -1.0812    3.7758 H   0  0  0  0  0  0  0  0  0  0  0  0
   31.6345   -2.1846    3.9579 H   0  0  0  0  0  0  0  0  0  0  0  0
   33.1503   -2.9300    3.2783 H   0  0  0  0  0  0  0  0  0  0  0  0
   30.9998    3.8513    4.4215 H   0  0  0  0  0  0  0  0  0  0  0  0
   29.7254    5.8737    5.0381 H   0  0  0  0  0  0  0  0  0  0  0  0
   27.2776    5.7240    5.0973 H   0  0  0  0  0  0  0  0  0  0  0  0
   26.1123    3.6645    4.5821 H   0  0  0  0  0  0  0  0  0  0  0  0
  1  2  2  0
  2  3  1  0
  3  4  1  0
  4  5  1  0
  5  6  1  0
  6  7  1  0
  7  8  1  0
  8  9  1  0
  9 10  1  0
 10 11  1  0
 10 12  1  0
  8 13  1  0
  2 14  1  0
 14 15  2  0
 15 16  1  0
 16 17  1  0
 17 18  1  0
 18 19  1  0
 19 20  1  0
 20 21  1  0
 21 22  1  0
 16 23  1  0
 23 24  2  0
 24 25  1  0
 25 26  2  0
 26 27  1  0
 27 28  2  0
 12  4  1  0
 28 14  1  0
 13  4  1  0
 28 23  1  0
 11  6  1  0
  3 29  1  0
  5 30  1  0
  5 31  1  0
  6 32  1  0
  7 33  1  0
  7 34  1  0
  8 35  1  0
  9 36  1  0
  9 37  1  0
 10 38  1  0
 11 39  1  0
 11 40  1  0
 12 41  1  0
 12 42  1  0
 13 43  1  0
 13 44  1  0
 17 45  1  0
 17 46  1  0
 18 47  1  0
 18 48  1  0
 19 49  1  0
 19 50  1  0
 20 51  1  0
 20 52  1  0
 21 53  1  0
 21 54  1  0
 24 55  1  0
 25 56  1  0
 26 57  1  0
 27 58  1  0
M  END
$$$$
