
     RDKit          3D

 68 70  0  0  0  0  0  0  0  0999 V2000
   26.9786    2.3284    2.4962 C   0  0  0  0  0  0  0  0  0  0  0  0
   28.0880    1.3483    2.8579 C   0  0  0  0  0  0  0  0  0  0  0  0
   29.4644    1.9899    2.6983 C   0  0  0  0  0  0  0  0  0  0  0  0
   30.6228    1.0407    3.0111 C   0  0  0  0  0  0  0  0  0  0  0  0
   30.7502    0.6829    4.4935 C   0  0  0  0  0  0  0  0  0  0  0  0
   31.3013    1.8372    5.3365 C   0  0  0  0  0  0  0  0  0  0  0  0
   30.8329    1.7965    6.8057 C   0  0  0  0  0  0  0  0  0  0  0  0
   31.3889    0.5395    7.4798 C   0  0  0  0  0  0  0  0  0  0  0  0
   31.3948    3.0160    7.5511 C   0  0  0  0  0  0  0  0  0  0  0  0
   29.3142    1.8555    6.8262 C   0  0  0  0  0  0  0  0  0  0  0  0
   28.6625    2.9425    6.2643 C   0  0  0  0  0  0  0  0  0  0  0  0
   27.2769    3.0014    6.2005 C   0  0  0  0  0  0  0  0  0  0  0  0
   26.4870    1.9438    6.6610 C   0  0  0  0  0  0  0  0  0  0  0  0
   24.9947    1.9742    6.4275 C   0  0  2  0  0  0  0  0  0  0  0  0
   24.4941    0.7484    5.6518 C   0  0  0  0  0  0  0  0  0  0  0  0
   23.0441    0.8940    5.2865 C   0  0  0  0  0  0  0  0  0  0  0  0
   22.3482   -0.3969    4.9349 C   0  0  0  0  0  0  0  0  0  0  0  0
   22.3139   -1.2998    6.0232 O   0  0  0  0  0  0  0  0  0  0  0  0
   22.4028    2.0534    5.3319 C   0  0  0  0  0  0  0  0  0  0  0  0
   23.0669    3.3545    5.6665 C   0  0  0  0  0  0  0  0  0  0  0  0
   24.5829    3.1974    5.5973 C   0  0  1  0  0  0  0  0  0  0  0  0
   25.3987    4.4396    5.9809 C   0  0  0  0  0  0  0  0  0  0  0  0
   25.0430    5.6420    5.1050 C   0  0  0  0  0  0  0  0  0  0  0  0
   25.2751    4.8186    7.4604 C   0  0  0  0  0  0  0  0  0  0  0  0
   26.7653    4.1533    5.6763 O   0  0  0  0  0  0  0  0  0  0  0  0
   27.1328    0.9023    7.3299 C   0  0  0  0  0  0  0  0  0  0  0  0
   26.3858   -0.2015    8.0247 C   0  0  0  0  0  0  0  0  0  0  0  0
   28.5209    0.8693    7.3942 C   0  0  0  0  0  0  0  0  0  0  0  0
   27.0999    2.6868    1.4756 H   0  0  0  0  0  0  0  0  0  0  0  0
   26.0028    1.8517    2.5744 H   0  0  0  0  0  0  0  0  0  0  0  0
   27.0037    3.1851    3.1662 H   0  0  0  0  0  0  0  0  0  0  0  0
   27.9484    1.0249    3.8912 H   0  0  0  0  0  0  0  0  0  0  0  0
   28.0224    0.4659    2.2162 H   0  0  0  0  0  0  0  0  0  0  0  0
   29.5691    2.3363    1.6666 H   0  0  0  0  0  0  0  0  0  0  0  0
   29.5156    2.8674    3.3442 H   0  0  0  0  0  0  0  0  0  0  0  0
   31.5581    1.4973    2.6769 H   0  0  0  0  0  0  0  0  0  0  0  0
   30.4829    0.1220    2.4356 H   0  0  0  0  0  0  0  0  0  0  0  0
   31.4081   -0.1834    4.5880 H   0  0  0  0  0  0  0  0  0  0  0  0
   29.7699    0.3934    4.8730 H   0  0  0  0  0  0  0  0  0  0  0  0
   32.3933    1.8222    5.3100 H   0  0  0  0  0  0  0  0  0  0  0  0
   30.9829    2.7830    4.8996 H   0  0  0  0  0  0  0  0  0  0  0  0
   31.1300    0.5212    8.5362 H   0  0  0  0  0  0  0  0  0  0  0  0
   31.0135   -0.3637    7.0076 H   0  0  0  0  0  0  0  0  0  0  0  0
   32.4743    0.5369    7.3998 H   0  0  0  0  0  0  0  0  0  0  0  0
   32.4824    2.9828    7.5594 H   0  0  0  0  0  0  0  0  0  0  0  0
   31.0861    3.9452    7.0810 H   0  0  0  0  0  0  0  0  0  0  0  0
   31.0417    3.0213    8.5803 H   0  0  0  0  0  0  0  0  0  0  0  0
   29.2025    3.7852    5.8635 H   0  0  0  0  0  0  0  0  0  0  0  0
   24.4705    2.0059    7.3920 H   0  0  0  0  0  0  0  0  0  0  0  0
   25.0914    0.6228    4.7428 H   0  0  0  0  0  0  0  0  0  0  0  0
   24.5987   -0.1673    6.2315 H   0  0  0  0  0  0  0  0  0  0  0  0
   22.9022   -0.9201    4.1500 H   0  0  0  0  0  0  0  0  0  0  0  0
   21.3309   -0.1944    4.5714 H   0  0  0  0  0  0  0  0  0  0  0  0
   21.8525   -0.8753    6.7549 H   0  0  0  0  0  0  0  0  0  0  0  0
   21.3469    2.1050    5.0993 H   0  0  0  0  0  0  0  0  0  0  0  0
   22.7282    4.1168    4.9616 H   0  0  0  0  0  0  0  0  0  0  0  0
   22.7544    3.6730    6.6663 H   0  0  0  0  0  0  0  0  0  0  0  0
   24.8444    2.9872    4.5531 H   0  0  0  0  0  0  0  0  0  0  0  0
   25.7959    6.4141    5.2411 H   0  0  0  0  0  0  0  0  0  0  0  0
   24.0727    6.0439    5.3796 H   0  0  0  0  0  0  0  0  0  0  0  0
   25.0321    5.3559    4.0562 H   0  0  0  0  0  0  0  0  0  0  0  0
   25.8803    5.7010    7.6557 H   0  0  0  0  0  0  0  0  0  0  0  0
   25.6340    4.0135    8.0966 H   0  0  0  0  0  0  0  0  0  0  0  0
   24.2427    5.0414    7.7137 H   0  0  0  0  0  0  0  0  0  0  0  0
   26.9567   -0.5413    8.8871 H   0  0  0  0  0  0  0  0  0  0  0  0
   25.4099    0.1292    8.3705 H   0  0  0  0  0  0  0  0  0  0  0  0
   26.2501   -1.0588    7.3656 H   0  0  0  0  0  0  0  0  0  0  0  0
   28.9740    0.0353    7.9052 H   0  0  0  0  0  0  0  0  0  0  0  0
  1  2  1  0
  2  3  1  0
  3  4  1  0
  4  5  1  0
  5  6  1  0
  6  7  1  0
  7  8  1  0
  7  9  1  0
  7 10  1  0
 10 11  2  0
 11 12  1  0
 12 13  2  0
 13 14  1  0
 14 15  1  0
 15 16  1  0
 16 17  1  0
 17 18  1  0
 16 19  2  0
 19 20  1  0
 20 21  1  0
 21 22  1  0
 22 23  1  0
 22 24  1  0
 22 25  1  0
 13 26  1  0
 26 27  1  0
 26 28  2  0
 28 10  1  0
 25 12  1  0
 21 14  1  0
  1 29  1  0
  1 30  1  0
  1 31  1  0
  2 32  1  0
  2 33  1  0
  3 34  1  0
  3 35  1  0
  4 36  1  0
  4 37  1  0
  5 38  1  0
  5 39  1  0
  6 40  1  0
  6 41  1  0
  8 42  1  0
  8 43  1  0
  8 44  1  0
  9 45  1  0
  9 46  1  0
  9 47  1  0
 11 48  1  0
 14 49  1  1
 15 50  1  0
 15 51  1  0
 17 52  1  0
 17 53  1  0
 18 54  1  0
 19 55  1  0
 20 56  1  0
 20 57  1  0
 21 58  1  6
 23 59  1  0
 23 60  1  0
 23 61  1  0
 24 62  1  0
 24 63  1  0
 24 64  1  0
 27 65  1  0
 27 66  1  0
 27 67  1  0
 28 68  1  0
M  END
$$$$
