
     RDKit          3D

 53 55  0  0  0  0  0  0  0  0999 V2000
   34.0305    1.4040    7.6073 C   0  0  0  0  0  0  0  0  0  0  0  0
   32.8840    1.8962    8.4933 C   0  0  0  0  0  0  0  0  0  0  0  0
   31.8937    2.5511    7.5712 C   0  0  0  0  0  0  0  0  0  0  0  0
   30.6896    2.9071    8.4589 C   0  0  0  0  0  0  0  0  0  0  0  0
   29.6067    3.3462    7.4964 C   0  0  0  0  0  0  0  0  0  0  0  0
   28.2879    3.4087    8.1060 C   0  0  0  0  0  0  0  0  0  0  0  0
   27.8336    2.2353    8.6334 C   0  0  0  0  0  0  0  0  0  0  0  0
   26.5104    2.0848    8.9230 C   0  0  0  0  0  0  0  0  0  0  0  0
   26.0967    0.8589    9.5180 O   0  0  0  0  0  0  0  0  0  0  0  0
   25.6445    3.1184    8.6380 C   0  0  0  0  0  0  0  0  0  0  0  0
   26.0711    4.3265    8.1024 C   0  0  0  0  0  0  0  0  0  0  0  0
   27.4407    4.4801    7.8216 C   0  0  0  0  0  0  0  0  0  0  0  0
   25.1924    5.3739    7.8829 O   0  0  0  0  0  0  0  0  0  0  0  0
   23.7702    5.2576    8.1789 C   0  0  0  0  0  0  0  0  0  0  0  0
   23.3011    6.2104    9.1639 C   0  0  0  0  0  0  0  0  0  0  0  0
   23.2216    5.8888    6.7897 C   0  0  0  0  0  0  0  0  0  0  0  0
   23.3855    3.8733    8.1001 C   0  0  2  0  0  0  0  0  0  0  0  0
   21.8940    3.6142    8.4027 C   0  0  0  0  0  0  0  0  0  0  0  0
   21.5336    2.1683    8.3935 C   0  0  0  0  0  0  0  0  0  0  0  0
   22.5671    1.2673    7.9099 C   0  0  0  0  0  0  0  0  0  0  0  0
   22.3155    0.0178    7.1010 C   0  0  0  0  0  0  0  0  0  0  0  0
   23.8429    1.5888    8.1511 C   0  0  0  0  0  0  0  0  0  0  0  0
   24.1794    2.8893    8.9102 C   0  0  1  0  0  0  0  0  0  0  0  0
   34.9063    2.0310    7.7853 H   0  0  0  0  0  0  0  0  0  0  0  0
   33.7023    1.4403    6.5138 H   0  0  0  0  0  0  0  0  0  0  0  0
   34.1928    0.3484    7.9104 H   0  0  0  0  0  0  0  0  0  0  0  0
   33.2203    2.7005    9.1983 H   0  0  0  0  0  0  0  0  0  0  0  0
   32.3722    1.0720    9.0193 H   0  0  0  0  0  0  0  0  0  0  0  0
   32.2564    3.5326    7.1997 H   0  0  0  0  0  0  0  0  0  0  0  0
   31.5175    1.9056    6.7976 H   0  0  0  0  0  0  0  0  0  0  0  0
   30.9032    3.7906    9.0717 H   0  0  0  0  0  0  0  0  0  0  0  0
   30.3294    2.0535    9.0218 H   0  0  0  0  0  0  0  0  0  0  0  0
   29.5100    2.6819    6.5995 H   0  0  0  0  0  0  0  0  0  0  0  0
   29.8579    4.3815    7.1837 H   0  0  0  0  0  0  0  0  0  0  0  0
   28.4550    1.3517    8.7835 H   0  0  0  0  0  0  0  0  0  0  0  0
   26.4102    0.0253    9.0751 H   0  0  0  0  0  0  0  0  0  0  0  0
   27.7983    5.3951    7.4518 H   0  0  0  0  0  0  0  0  0  0  0  0
   23.7940    7.2120    8.9581 H   0  0  0  0  0  0  0  0  0  0  0  0
   23.4462    5.9868   10.2102 H   0  0  0  0  0  0  0  0  0  0  0  0
   22.1826    6.5129    9.0201 H   0  0  0  0  0  0  0  0  0  0  0  0
   23.7369    5.1674    6.0930 H   0  0  0  0  0  0  0  0  0  0  0  0
   23.6560    6.8564    6.6483 H   0  0  0  0  0  0  0  0  0  0  0  0
   22.1634    5.7380    6.7755 H   0  0  0  0  0  0  0  0  0  0  0  0
   23.4768    3.5197    7.0017 H   0  0  0  0  0  0  0  0  0  0  0  0
   21.6858    4.0761    9.3897 H   0  0  0  0  0  0  0  0  0  0  0  0
   21.2294    4.1242    7.6571 H   0  0  0  0  0  0  0  0  0  0  0  0
   20.5826    1.9874    7.8135 H   0  0  0  0  0  0  0  0  0  0  0  0
   21.3743    1.8512    9.4845 H   0  0  0  0  0  0  0  0  0  0  0  0
   23.1105    0.0211    6.3009 H   0  0  0  0  0  0  0  0  0  0  0  0
   22.6309   -0.8313    7.7503 H   0  0  0  0  0  0  0  0  0  0  0  0
   21.3046    0.0005    6.7176 H   0  0  0  0  0  0  0  0  0  0  0  0
   24.6065    0.9188    7.7988 H   0  0  0  0  0  0  0  0  0  0  0  0
   23.9730    2.8059    9.9289 H   0  0  0  0  0  0  0  0  0  0  0  0
  1  2  1  0
  2  3  1  0
  3  4  1  0
  4  5  1  0
  5  6  1  0
  6  7  2  0
  7  8  1  0
  8  9  1  0
  8 10  2  0
 10 11  1  0
 11 12  2  0
 11 13  1  0
 13 14  1  0
 14 15  1  0
 14 16  1  0
 14 17  1  0
 17 18  1  0
 18 19  1  0
 19 20  1  0
 20 21  1  0
 20 22  2  0
 22 23  1  0
 12  6  1  0
 23 17  1  0
 23 10  1  0
  1 24  1  0
  1 25  1  0
  1 26  1  0
  2 27  1  0
  2 28  1  0
  3 29  1  0
  3 30  1  0
  4 31  1  0
  4 32  1  0
  5 33  1  0
  5 34  1  0
  7 35  1  0
  9 36  1  0
 12 37  1  0
 15 38  1  0
 15 39  1  0
 15 40  1  0
 16 41  1  0
 16 42  1  0
 16 43  1  0
 17 44  1  6
 18 45  1  0
 18 46  1  0
 19 47  1  0
 19 48  1  0
 21 49  1  0
 21 50  1  0
 21 51  1  0
 22 52  1  0
 23 53  1  1
M  END
$$$$
