
     RDKit          3D

 53 55  0  0  0  0  0  0  0  0999 V2000
   33.5609    4.4033    8.3119 C   0  0  0  0  0  0  0  0  0  0  0  0
   32.4011    3.6167    7.7450 C   0  0  0  0  0  0  0  0  0  0  0  0
   32.3713    2.2460    8.3869 C   0  0  0  0  0  0  0  0  0  0  0  0
   31.6698    1.2704    7.5031 C   0  0  0  0  0  0  0  0  0  0  0  0
   30.4244    1.7232    6.9080 C   0  0  0  0  0  0  0  0  0  0  0  0
   29.2268    2.0016    7.7082 C   0  0  0  0  0  0  0  0  0  0  0  0
   28.5730    0.8775    8.2957 C   0  0  0  0  0  0  0  0  0  0  0  0
   27.2218    1.1423    8.6059 C   0  0  0  0  0  0  0  0  0  0  0  0
   26.5648    0.0289    9.1862 O   0  0  0  0  0  0  0  0  0  0  0  0
   26.5761    2.2816    8.3871 C   0  0  0  0  0  0  0  0  0  0  0  0
   27.2828    3.3304    7.8994 C   0  0  0  0  0  0  0  0  0  0  0  0
   28.5849    3.1512    7.5820 C   0  0  0  0  0  0  0  0  0  0  0  0
   26.7041    4.5532    7.7906 O   0  0  0  0  0  0  0  0  0  0  0  0
   25.3511    4.8173    8.0810 C   0  0  0  0  0  0  0  0  0  0  0  0
   24.9655    5.2752    9.3791 C   0  0  0  0  0  0  0  0  0  0  0  0
   25.0163    5.9338    7.0179 C   0  0  0  0  0  0  0  0  0  0  0  0
   24.6691    3.6471    7.5187 C   0  0  2  0  0  0  0  0  0  0  0  0
   23.1996    3.5995    7.4867 C   0  0  0  0  0  0  0  0  0  0  0  0
   22.5172    2.9053    8.6629 C   0  0  0  0  0  0  0  0  0  0  0  0
   22.9288    1.4921    8.0841 C   0  0  0  0  0  0  0  0  0  0  0  0
   21.8919    0.5638    7.6228 C   0  0  0  0  0  0  0  0  0  0  0  0
   24.2355    1.3313    8.0149 C   0  0  0  0  0  0  0  0  0  0  0  0
   25.1208    2.3917    8.4501 C   0  0  1  0  0  0  0  0  0  0  0  0
   33.4295    5.4591    8.0949 H   0  0  0  0  0  0  0  0  0  0  0  0
   34.5032    4.0691    7.7534 H   0  0  0  0  0  0  0  0  0  0  0  0
   33.7770    4.2368    9.3588 H   0  0  0  0  0  0  0  0  0  0  0  0
   31.4952    4.1594    8.2197 H   0  0  0  0  0  0  0  0  0  0  0  0
   32.3622    3.6777    6.6896 H   0  0  0  0  0  0  0  0  0  0  0  0
   33.4544    1.9266    8.4157 H   0  0  0  0  0  0  0  0  0  0  0  0
   31.9774    2.2593    9.3860 H   0  0  0  0  0  0  0  0  0  0  0  0
   32.3267    0.7864    6.7544 H   0  0  0  0  0  0  0  0  0  0  0  0
   31.3591    0.4079    8.1980 H   0  0  0  0  0  0  0  0  0  0  0  0
   30.1444    0.9846    6.0846 H   0  0  0  0  0  0  0  0  0  0  0  0
   30.6417    2.6511    6.2274 H   0  0  0  0  0  0  0  0  0  0  0  0
   29.1253    0.0144    8.4837 H   0  0  0  0  0  0  0  0  0  0  0  0
   25.7646   -0.4393    9.1323 H   0  0  0  0  0  0  0  0  0  0  0  0
   29.1299    4.0206    7.1482 H   0  0  0  0  0  0  0  0  0  0  0  0
   23.8247    5.3804    9.4737 H   0  0  0  0  0  0  0  0  0  0  0  0
   25.3337    6.3100    9.5711 H   0  0  0  0  0  0  0  0  0  0  0  0
   25.3489    4.6284   10.2199 H   0  0  0  0  0  0  0  0  0  0  0  0
   24.2146    5.5847    6.3542 H   0  0  0  0  0  0  0  0  0  0  0  0
   24.7710    6.8527    7.5383 H   0  0  0  0  0  0  0  0  0  0  0  0
   25.9084    6.1345    6.3822 H   0  0  0  0  0  0  0  0  0  0  0  0
   25.0900    3.3222    6.5762 H   0  0  0  0  0  0  0  0  0  0  0  0
   22.8105    4.7088    7.5965 H   0  0  0  0  0  0  0  0  0  0  0  0
   22.8121    3.2879    6.5378 H   0  0  0  0  0  0  0  0  0  0  0  0
   21.4180    3.0000    8.4523 H   0  0  0  0  0  0  0  0  0  0  0  0
   22.9011    3.1293    9.5796 H   0  0  0  0  0  0  0  0  0  0  0  0
   21.5540    1.0148    6.6165 H   0  0  0  0  0  0  0  0  0  0  0  0
   20.9845    0.6426    8.2529 H   0  0  0  0  0  0  0  0  0  0  0  0
   22.1962   -0.4724    7.5088 H   0  0  0  0  0  0  0  0  0  0  0  0
   24.5765    0.4421    7.4341 H   0  0  0  0  0  0  0  0  0  0  0  0
   24.8695    2.6717    9.5438 H   0  0  0  0  0  0  0  0  0  0  0  0
  1  2  1  0
  2  3  1  0
  3  4  1  0
  4  5  1  0
  5  6  1  0
  6  7  2  0
  7  8  1  0
  8  9  1  0
  8 10  2  0
 10 11  1  0
 11 12  2  0
 11 13  1  0
 13 14  1  0
 14 15  1  0
 14 16  1  0
 14 17  1  0
 17 18  1  0
 18 19  1  0
 19 20  1  0
 20 21  1  0
 20 22  2  0
 22 23  1  0
 12  6  1  0
 23 17  1  0
 23 10  1  0
  1 24  1  0
  1 25  1  0
  1 26  1  0
  2 27  1  0
  2 28  1  0
  3 29  1  0
  3 30  1  0
  4 31  1  0
  4 32  1  0
  5 33  1  0
  5 34  1  0
  7 35  1  0
  9 36  1  0
 12 37  1  0
 15 38  1  0
 15 39  1  0
 15 40  1  0
 16 41  1  0
 16 42  1  0
 16 43  1  0
 17 44  1  6
 18 45  1  0
 18 46  1  0
 19 47  1  0
 19 48  1  0
 21 49  1  0
 21 50  1  0
 21 51  1  0
 22 52  1  0
 23 53  1  1
M  END
$$$$
