
     RDKit          3D

 49 52  0  0  0  0  0  0  0  0999 V2000
   30.7934    2.0007    7.1495 C   0  0  0  0  0  0  0  0  0  0  0  0
   30.3908    2.5752    8.4916 C   0  0  2  0  0  0  0  0  0  0  0  0
   29.5988    1.5374    9.2324 C   0  0  0  0  0  0  0  0  0  0  0  0
   28.2632    1.4039    8.6043 C   0  0  0  0  0  0  0  0  0  0  0  0
   27.5342    2.7706    8.6070 C   0  0  1  0  0  0  0  0  0  0  0  0
   28.4080    3.7207    7.7780 C   0  0  1  0  0  0  0  0  0  0  0  0
   27.6566    5.0751    7.7510 C   0  0  0  0  0  0  0  0  0  0  0  0
   26.3602    4.8779    7.0353 C   0  0  0  0  0  0  0  0  0  0  0  0
   25.5037    3.8494    7.6420 C   0  0  0  0  0  0  0  0  0  0  0  0
   24.2227    4.0704    7.8150 C   0  0  0  0  0  0  0  0  0  0  0  0
   23.3957    3.0384    8.3873 C   0  0  0  0  0  0  0  0  0  0  0  0
   22.1870    3.3204    8.7616 O   0  0  0  0  0  0  0  0  0  0  0  0
   23.9462    1.6488    8.5307 C   0  0  0  0  0  0  0  0  0  0  0  0
   25.3967    1.8258    9.0069 C   0  0  0  0  0  0  0  0  0  0  0  0
   26.2043    2.5861    7.9220 C   0  0  2  0  0  0  0  0  0  0  0  0
   26.2231    1.6304    6.7767 C   0  0  0  0  0  0  0  0  0  0  0  0
   29.7305    3.9040    8.4511 C   0  0  2  0  0  0  0  0  0  0  0  0
   30.7791    4.5639    7.5520 C   0  0  0  0  0  0  0  0  0  0  0  0
   32.0591    4.2772    8.2708 C   0  0  0  0  0  0  0  0  0  0  0  0
   31.6508    3.0764    9.2244 C   0  0  2  0  0  0  0  0  0  0  0  0
   32.6135    2.0653    8.9946 O   0  0  0  0  0  0  0  0  0  0  0  0
   31.8638    1.7528    7.1121 H   0  0  0  0  0  0  0  0  0  0  0  0
   30.2482    1.0140    7.0329 H   0  0  0  0  0  0  0  0  0  0  0  0
   30.5836    2.5972    6.2817 H   0  0  0  0  0  0  0  0  0  0  0  0
   30.1090    0.5839    9.1310 H   0  0  0  0  0  0  0  0  0  0  0  0
   29.5066    1.8117   10.2952 H   0  0  0  0  0  0  0  0  0  0  0  0
   27.6518    0.7568    9.3056 H   0  0  0  0  0  0  0  0  0  0  0  0
   28.3268    1.0346    7.5511 H   0  0  0  0  0  0  0  0  0  0  0  0
   27.4515    3.1300    9.5714 H   0  0  0  0  0  0  0  0  0  0  0  0
   28.3791    3.4238    6.7426 H   0  0  0  0  0  0  0  0  0  0  0  0
   28.2679    5.7825    7.1690 H   0  0  0  0  0  0  0  0  0  0  0  0
   27.5012    5.4115    8.8411 H   0  0  0  0  0  0  0  0  0  0  0  0
   26.6438    4.4723    6.0266 H   0  0  0  0  0  0  0  0  0  0  0  0
   25.8146    5.8293    6.9439 H   0  0  0  0  0  0  0  0  0  0  0  0
   23.8339    5.0336    7.5548 H   0  0  0  0  0  0  0  0  0  0  0  0
   23.4398    1.2337    9.3777 H   0  0  0  0  0  0  0  0  0  0  0  0
   23.8602    1.0937    7.6011 H   0  0  0  0  0  0  0  0  0  0  0  0
   25.7780    0.8470    9.1956 H   0  0  0  0  0  0  0  0  0  0  0  0
   25.3988    2.4883    9.8807 H   0  0  0  0  0  0  0  0  0  0  0  0
   26.9824    1.8094    6.0081 H   0  0  0  0  0  0  0  0  0  0  0  0
   26.3190    0.5513    7.1712 H   0  0  0  0  0  0  0  0  0  0  0  0
   25.2616    1.6882    6.2241 H   0  0  0  0  0  0  0  0  0  0  0  0
   29.6826    4.4221    9.3872 H   0  0  0  0  0  0  0  0  0  0  0  0
   30.8382    4.2507    6.5578 H   0  0  0  0  0  0  0  0  0  0  0  0
   30.6071    5.6743    7.5209 H   0  0  0  0  0  0  0  0  0  0  0  0
   32.2201    5.1067    9.0068 H   0  0  0  0  0  0  0  0  0  0  0  0
   32.8946    4.0212    7.7117 H   0  0  0  0  0  0  0  0  0  0  0  0
   31.5108    3.3025   10.2385 H   0  0  0  0  0  0  0  0  0  0  0  0
   33.3013    2.2951    8.3659 H   0  0  0  0  0  0  0  0  0  0  0  0
  2  1  1  6
  2  3  1  0
  3  4  1  0
  4  5  1  0
  5  6  1  0
  6  7  1  0
  7  8  1  0
  8  9  1  0
  9 10  2  0
 10 11  1  0
 11 12  2  0
 11 13  1  0
 13 14  1  0
 14 15  1  0
 15 16  1  6
  6 17  1  0
 17 18  1  0
 18 19  1  0
 19 20  1  0
 20 21  1  0
 17  2  1  0
 20  2  1  0
 15  5  1  0
 15  9  1  0
  1 22  1  0
  1 23  1  0
  1 24  1  0
  3 25  1  0
  3 26  1  0
  4 27  1  0
  4 28  1  0
  5 29  1  1
  6 30  1  6
  7 31  1  0
  7 32  1  0
  8 33  1  0
  8 34  1  0
 10 35  1  0
 13 36  1  0
 13 37  1  0
 14 38  1  0
 14 39  1  0
 16 40  1  0
 16 41  1  0
 16 42  1  0
 17 43  1  1
 18 44  1  0
 18 45  1  0
 19 46  1  0
 19 47  1  0
 20 48  1  1
 21 49  1  0
M  END
$$$$
