
     RDKit          3D

 49 52  0  0  0  0  0  0  0  0999 V2000
   30.6350    2.1707    7.3490 C   0  0  0  0  0  0  0  0  0  0  0  0
   30.0534    2.6400    8.6758 C   0  0  2  0  0  0  0  0  0  0  0  0
   29.3474    1.6036    9.4133 C   0  0  0  0  0  0  0  0  0  0  0  0
   27.9876    1.4734    8.6595 C   0  0  0  0  0  0  0  0  0  0  0  0
   27.2098    2.7776    8.6317 C   0  0  1  0  0  0  0  0  0  0  0  0
   28.1186    3.7590    7.9428 C   0  0  1  0  0  0  0  0  0  0  0  0
   27.4440    5.1070    7.6513 C   0  0  0  0  0  0  0  0  0  0  0  0
   26.2217    4.7881    6.7265 C   0  0  0  0  0  0  0  0  0  0  0  0
   25.3788    3.8632    7.6575 C   0  0  0  0  0  0  0  0  0  0  0  0
   24.3966    4.3454    8.2627 C   0  0  0  0  0  0  0  0  0  0  0  0
   23.6229    3.4981    9.1687 C   0  0  0  0  0  0  0  0  0  0  0  0
   22.4389    3.6898    9.4880 O   0  0  0  0  0  0  0  0  0  0  0  0
   24.4191    2.2809    9.6932 C   0  0  0  0  0  0  0  0  0  0  0  0
   24.9697    1.6108    8.4903 C   0  0  0  0  0  0  0  0  0  0  0  0
   26.0338    2.4758    7.8076 C   0  0  2  0  0  0  0  0  0  0  0  0
   26.2802    1.8699    6.4934 C   0  0  0  0  0  0  0  0  0  0  0  0
   29.3724    3.9668    8.6204 C   0  0  2  0  0  0  0  0  0  0  0  0
   30.4501    4.6680    7.8232 C   0  0  0  0  0  0  0  0  0  0  0  0
   31.7337    4.3497    8.6883 C   0  0  0  0  0  0  0  0  0  0  0  0
   31.2684    3.1231    9.5204 C   0  0  2  0  0  0  0  0  0  0  0  0
   32.2351    2.1849    9.3884 O   0  0  0  0  0  0  0  0  0  0  0  0
   30.5339    2.8280    6.5287 H   0  0  0  0  0  0  0  0  0  0  0  0
   31.7008    1.9298    7.5097 H   0  0  0  0  0  0  0  0  0  0  0  0
   30.1401    1.1656    7.1241 H   0  0  0  0  0  0  0  0  0  0  0  0
   29.8930    0.5936    9.1410 H   0  0  0  0  0  0  0  0  0  0  0  0
   29.3242    1.6880   10.4833 H   0  0  0  0  0  0  0  0  0  0  0  0
   27.4398    0.6098    9.0721 H   0  0  0  0  0  0  0  0  0  0  0  0
   28.2676    1.2903    7.6200 H   0  0  0  0  0  0  0  0  0  0  0  0
   26.9535    3.0414    9.6142 H   0  0  0  0  0  0  0  0  0  0  0  0
   28.2632    3.3335    6.9328 H   0  0  0  0  0  0  0  0  0  0  0  0
   27.1139    5.6350    8.5526 H   0  0  0  0  0  0  0  0  0  0  0  0
   28.1822    5.6809    7.0212 H   0  0  0  0  0  0  0  0  0  0  0  0
   25.6665    5.6513    6.4513 H   0  0  0  0  0  0  0  0  0  0  0  0
   26.6201    4.1839    5.9238 H   0  0  0  0  0  0  0  0  0  0  0  0
   24.1088    5.4239    8.0685 H   0  0  0  0  0  0  0  0  0  0  0  0
   25.1594    2.7274   10.3836 H   0  0  0  0  0  0  0  0  0  0  0  0
   23.6387    1.5991   10.2093 H   0  0  0  0  0  0  0  0  0  0  0  0
   25.4562    0.6736    8.8502 H   0  0  0  0  0  0  0  0  0  0  0  0
   24.1252    1.3356    7.8068 H   0  0  0  0  0  0  0  0  0  0  0  0
   26.9403    2.3104    5.8140 H   0  0  0  0  0  0  0  0  0  0  0  0
   26.5305    0.7511    6.5916 H   0  0  0  0  0  0  0  0  0  0  0  0
   25.2440    1.7871    5.9438 H   0  0  0  0  0  0  0  0  0  0  0  0
   29.3433    4.4156    9.5900 H   0  0  0  0  0  0  0  0  0  0  0  0
   30.4853    4.5911    6.7875 H   0  0  0  0  0  0  0  0  0  0  0  0
   30.1928    5.7870    8.0071 H   0  0  0  0  0  0  0  0  0  0  0  0
   32.6426    4.1709    8.1051 H   0  0  0  0  0  0  0  0  0  0  0  0
   31.7179    5.2447    9.4287 H   0  0  0  0  0  0  0  0  0  0  0  0
   30.9554    3.4487   10.4893 H   0  0  0  0  0  0  0  0  0  0  0  0
   33.0485    2.4831    8.8891 H   0  0  0  0  0  0  0  0  0  0  0  0
  2  1  1  6
  2  3  1  0
  3  4  1  0
  4  5  1  0
  5  6  1  0
  6  7  1  0
  7  8  1  0
  8  9  1  0
  9 10  2  0
 10 11  1  0
 11 12  2  0
 11 13  1  0
 13 14  1  0
 14 15  1  0
 15 16  1  6
  6 17  1  0
 17 18  1  0
 18 19  1  0
 19 20  1  0
 20 21  1  0
 17  2  1  0
 20  2  1  0
 15  5  1  0
 15  9  1  0
  1 22  1  0
  1 23  1  0
  1 24  1  0
  3 25  1  0
  3 26  1  0
  4 27  1  0
  4 28  1  0
  5 29  1  1
  6 30  1  6
  7 31  1  0
  7 32  1  0
  8 33  1  0
  8 34  1  0
 10 35  1  0
 13 36  1  0
 13 37  1  0
 14 38  1  0
 14 39  1  0
 16 40  1  0
 16 41  1  0
 16 42  1  0
 17 43  1  1
 18 44  1  0
 18 45  1  0
 19 46  1  0
 19 47  1  0
 20 48  1  1
 21 49  1  0
M  END
$$$$
