
     RDKit          3D

 49 52  0  0  0  0  0  0  0  0999 V2000
   31.1657    2.1048    7.2413 C   0  0  0  0  0  0  0  0  0  0  0  0
   30.5670    2.5692    8.5070 C   0  0  2  0  0  0  0  0  0  0  0  0
   29.8116    1.5376    9.2478 C   0  0  0  0  0  0  0  0  0  0  0  0
   28.4409    1.4005    8.5770 C   0  0  0  0  0  0  0  0  0  0  0  0
   27.7195    2.7318    8.6293 C   0  0  1  0  0  0  0  0  0  0  0  0
   28.5577    3.7174    7.7875 C   0  0  1  0  0  0  0  0  0  0  0  0
   27.7725    5.0611    7.8237 C   0  0  0  0  0  0  0  0  0  0  0  0
   26.4603    4.8772    7.1258 C   0  0  0  0  0  0  0  0  0  0  0  0
   25.6361    3.8066    7.7823 C   0  0  0  0  0  0  0  0  0  0  0  0
   24.3876    4.0611    8.0091 C   0  0  0  0  0  0  0  0  0  0  0  0
   23.5313    3.0813    8.6186 C   0  0  0  0  0  0  0  0  0  0  0  0
   22.3973    3.3739    8.9621 O   0  0  0  0  0  0  0  0  0  0  0  0
   24.1473    1.6934    8.7816 C   0  0  0  0  0  0  0  0  0  0  0  0
   25.5673    1.8366    9.1773 C   0  0  0  0  0  0  0  0  0  0  0  0
   26.3640    2.5682    7.9954 C   0  0  2  0  0  0  0  0  0  0  0  0
   26.2458    1.6533    6.8250 C   0  0  0  0  0  0  0  0  0  0  0  0
   29.8772    3.9097    8.4529 C   0  0  2  0  0  0  0  0  0  0  0  0
   30.9497    4.5905    7.6195 C   0  0  0  0  0  0  0  0  0  0  0  0
   32.1775    4.2759    8.4924 C   0  0  0  0  0  0  0  0  0  0  0  0
   31.7217    3.1239    9.3946 C   0  0  2  0  0  0  0  0  0  0  0  0
   32.7187    2.2235    9.5830 O   0  0  0  0  0  0  0  0  0  0  0  0
   31.3074    0.9949    7.2797 H   0  0  0  0  0  0  0  0  0  0  0  0
   32.1808    2.5923    7.0475 H   0  0  0  0  0  0  0  0  0  0  0  0
   30.5791    2.3384    6.3020 H   0  0  0  0  0  0  0  0  0  0  0  0
   29.7533    1.7635   10.2990 H   0  0  0  0  0  0  0  0  0  0  0  0
   30.3085    0.5518    9.1278 H   0  0  0  0  0  0  0  0  0  0  0  0
   28.4795    0.9949    7.5879 H   0  0  0  0  0  0  0  0  0  0  0  0
   27.8479    0.7358    9.2855 H   0  0  0  0  0  0  0  0  0  0  0  0
   27.7200    3.0861    9.6246 H   0  0  0  0  0  0  0  0  0  0  0  0
   28.5485    3.3652    6.7769 H   0  0  0  0  0  0  0  0  0  0  0  0
   27.7006    5.4457    8.8443 H   0  0  0  0  0  0  0  0  0  0  0  0
   28.3554    5.7442    7.1723 H   0  0  0  0  0  0  0  0  0  0  0  0
   25.9125    5.8273    7.0246 H   0  0  0  0  0  0  0  0  0  0  0  0
   26.7424    4.5371    6.0641 H   0  0  0  0  0  0  0  0  0  0  0  0
   24.0034    5.0626    7.6982 H   0  0  0  0  0  0  0  0  0  0  0  0
   23.6399    1.2962    9.7139 H   0  0  0  0  0  0  0  0  0  0  0  0
   23.9927    1.0156    7.9907 H   0  0  0  0  0  0  0  0  0  0  0  0
   25.6742    2.5490   10.0046 H   0  0  0  0  0  0  0  0  0  0  0  0
   26.0504    0.9114    9.4702 H   0  0  0  0  0  0  0  0  0  0  0  0
   25.1895    1.5733    6.4499 H   0  0  0  0  0  0  0  0  0  0  0  0
   26.4881    0.5973    7.0836 H   0  0  0  0  0  0  0  0  0  0  0  0
   26.8433    2.0671    6.0024 H   0  0  0  0  0  0  0  0  0  0  0  0
   29.8341    4.4259    9.3574 H   0  0  0  0  0  0  0  0  0  0  0  0
   31.0868    4.3561    6.6026 H   0  0  0  0  0  0  0  0  0  0  0  0
   30.7410    5.7084    7.6797 H   0  0  0  0  0  0  0  0  0  0  0  0
   33.0903    4.0279    7.9741 H   0  0  0  0  0  0  0  0  0  0  0  0
   32.2812    5.1307    9.2151 H   0  0  0  0  0  0  0  0  0  0  0  0
   31.2477    3.4812   10.3024 H   0  0  0  0  0  0  0  0  0  0  0  0
   32.9253    1.6428    8.8110 H   0  0  0  0  0  0  0  0  0  0  0  0
  2  1  1  6
  2  3  1  0
  3  4  1  0
  4  5  1  0
  5  6  1  0
  6  7  1  0
  7  8  1  0
  8  9  1  0
  9 10  2  0
 10 11  1  0
 11 12  2  0
 11 13  1  0
 13 14  1  0
 14 15  1  0
 15 16  1  6
  6 17  1  0
 17 18  1  0
 18 19  1  0
 19 20  1  0
 20 21  1  0
 17  2  1  0
 20  2  1  0
 15  5  1  0
 15  9  1  0
  1 22  1  0
  1 23  1  0
  1 24  1  0
  3 25  1  0
  3 26  1  0
  4 27  1  0
  4 28  1  0
  5 29  1  1
  6 30  1  6
  7 31  1  0
  7 32  1  0
  8 33  1  0
  8 34  1  0
 10 35  1  0
 13 36  1  0
 13 37  1  0
 14 38  1  0
 14 39  1  0
 16 40  1  0
 16 41  1  0
 16 42  1  0
 17 43  1  1
 18 44  1  0
 18 45  1  0
 19 46  1  0
 19 47  1  0
 20 48  1  1
 21 49  1  0
M  END
$$$$
