
     RDKit          3D

 49 52  0  0  0  0  0  0  0  0999 V2000
   30.6447    1.8460    7.6025 C   0  0  0  0  0  0  0  0  0  0  0  0
   30.1812    2.6800    8.7880 C   0  0  2  0  0  0  0  0  0  0  0  0
   29.3343    1.7511    9.5599 C   0  0  0  0  0  0  0  0  0  0  0  0
   28.1830    1.3289    8.7204 C   0  0  0  0  0  0  0  0  0  0  0  0
   27.4491    2.5460    8.3137 C   0  0  1  0  0  0  0  0  0  0  0  0
   28.2890    3.5456    7.5307 C   0  0  1  0  0  0  0  0  0  0  0  0
   27.4238    4.6583    7.0284 C   0  0  0  0  0  0  0  0  0  0  0  0
   26.4239    5.1883    8.0473 C   0  0  0  0  0  0  0  0  0  0  0  0
   25.4890    3.9490    8.2641 C   0  0  0  0  0  0  0  0  0  0  0  0
   24.2519    4.0425    8.7054 C   0  0  0  0  0  0  0  0  0  0  0  0
   23.4627    2.8947    8.8823 C   0  0  0  0  0  0  0  0  0  0  0  0
   22.4163    2.8923    9.5193 O   0  0  0  0  0  0  0  0  0  0  0  0
   23.8461    1.5488    8.3101 C   0  0  0  0  0  0  0  0  0  0  0  0
   25.2946    1.4247    8.6534 C   0  0  0  0  0  0  0  0  0  0  0  0
   26.0275    2.6008    7.9361 C   0  0  2  0  0  0  0  0  0  0  0  0
   25.8608    2.2712    6.4459 C   0  0  0  0  0  0  0  0  0  0  0  0
   29.4408    3.9559    8.3676 C   0  0  2  0  0  0  0  0  0  0  0  0
   30.5604    4.3170    7.3244 C   0  0  0  0  0  0  0  0  0  0  0  0
   31.7965    4.2466    8.1876 C   0  0  0  0  0  0  0  0  0  0  0  0
   31.3706    3.3104    9.3838 C   0  0  2  0  0  0  0  0  0  0  0  0
   32.3234    2.3197    9.5788 O   0  0  0  0  0  0  0  0  0  0  0  0
   29.9655    1.7598    6.7597 H   0  0  0  0  0  0  0  0  0  0  0  0
   31.6566    2.0560    7.2929 H   0  0  0  0  0  0  0  0  0  0  0  0
   30.6807    0.7547    8.0097 H   0  0  0  0  0  0  0  0  0  0  0  0
   29.9090    0.8522    9.8443 H   0  0  0  0  0  0  0  0  0  0  0  0
   28.8934    2.2194   10.4812 H   0  0  0  0  0  0  0  0  0  0  0  0
   28.4605    0.7084    7.8103 H   0  0  0  0  0  0  0  0  0  0  0  0
   27.5043    0.7446    9.3947 H   0  0  0  0  0  0  0  0  0  0  0  0
   27.4023    3.1363    9.3616 H   0  0  0  0  0  0  0  0  0  0  0  0
   28.6778    3.0402    6.5917 H   0  0  0  0  0  0  0  0  0  0  0  0
   26.9871    4.4931    6.0576 H   0  0  0  0  0  0  0  0  0  0  0  0
   28.1314    5.5235    6.7964 H   0  0  0  0  0  0  0  0  0  0  0  0
   25.7727    5.8721    7.4275 H   0  0  0  0  0  0  0  0  0  0  0  0
   26.7992    5.5314    8.9042 H   0  0  0  0  0  0  0  0  0  0  0  0
   23.8744    4.9723    8.9620 H   0  0  0  0  0  0  0  0  0  0  0  0
   23.5400    1.5342    7.2775 H   0  0  0  0  0  0  0  0  0  0  0  0
   23.3001    0.7113    8.8373 H   0  0  0  0  0  0  0  0  0  0  0  0
   25.3621    1.4334    9.7282 H   0  0  0  0  0  0  0  0  0  0  0  0
   25.6616    0.5075    8.1397 H   0  0  0  0  0  0  0  0  0  0  0  0
   25.0600    1.4878    6.3357 H   0  0  0  0  0  0  0  0  0  0  0  0
   26.7650    1.6744    6.0612 H   0  0  0  0  0  0  0  0  0  0  0  0
   25.5011    3.0633    5.8228 H   0  0  0  0  0  0  0  0  0  0  0  0
   29.3858    4.7147    9.0517 H   0  0  0  0  0  0  0  0  0  0  0  0
   30.5159    3.5298    6.5870 H   0  0  0  0  0  0  0  0  0  0  0  0
   30.3193    5.2817    6.8955 H   0  0  0  0  0  0  0  0  0  0  0  0
   32.0760    5.2298    8.5766 H   0  0  0  0  0  0  0  0  0  0  0  0
   32.6589    3.6800    7.6978 H   0  0  0  0  0  0  0  0  0  0  0  0
   31.2541    3.9412   10.2529 H   0  0  0  0  0  0  0  0  0  0  0  0
   33.0717    2.6807   10.0929 H   0  0  0  0  0  0  0  0  0  0  0  0
  2  1  1  6
  2  3  1  0
  3  4  1  0
  4  5  1  0
  5  6  1  0
  6  7  1  0
  7  8  1  0
  8  9  1  0
  9 10  2  0
 10 11  1  0
 11 12  2  0
 11 13  1  0
 13 14  1  0
 14 15  1  0
 15 16  1  6
  6 17  1  0
 17 18  1  0
 18 19  1  0
 19 20  1  0
 20 21  1  0
 17  2  1  0
 20  2  1  0
 15  5  1  0
 15  9  1  0
  1 22  1  0
  1 23  1  0
  1 24  1  0
  3 25  1  0
  3 26  1  0
  4 27  1  0
  4 28  1  0
  5 29  1  1
  6 30  1  6
  7 31  1  0
  7 32  1  0
  8 33  1  0
  8 34  1  0
 10 35  1  0
 13 36  1  0
 13 37  1  0
 14 38  1  0
 14 39  1  0
 16 40  1  0
 16 41  1  0
 16 42  1  0
 17 43  1  1
 18 44  1  0
 18 45  1  0
 19 46  1  0
 19 47  1  0
 20 48  1  1
 21 49  1  0
M  END
$$$$
