
     RDKit          3D

 49 52  0  0  0  0  0  0  0  0999 V2000
   30.5280    2.0796    7.2295 C   0  0  0  0  0  0  0  0  0  0  0  0
   30.3237    2.6482    8.6407 C   0  0  2  0  0  0  0  0  0  0  0  0
   29.6069    1.6174    9.4683 C   0  0  0  0  0  0  0  0  0  0  0  0
   28.2363    1.4625    8.8764 C   0  0  0  0  0  0  0  0  0  0  0  0
   27.4548    2.6810    8.7193 C   0  0  1  0  0  0  0  0  0  0  0  0
   28.2517    3.6748    7.9521 C   0  0  1  0  0  0  0  0  0  0  0  0
   27.5914    4.9517    7.6605 C   0  0  0  0  0  0  0  0  0  0  0  0
   26.2561    4.7006    6.9337 C   0  0  0  0  0  0  0  0  0  0  0  0
   25.4295    3.7921    7.8144 C   0  0  0  0  0  0  0  0  0  0  0  0
   24.1557    4.2378    8.1214 C   0  0  0  0  0  0  0  0  0  0  0  0
   23.4731    3.2250    8.9548 C   0  0  0  0  0  0  0  0  0  0  0  0
   22.6056    3.7788    9.6091 O   0  0  0  0  0  0  0  0  0  0  0  0
   23.9458    1.8734    8.9172 C   0  0  0  0  0  0  0  0  0  0  0  0
   25.3380    1.5641    8.9403 C   0  0  0  0  0  0  0  0  0  0  0  0
   26.0941    2.5207    7.9978 C   0  0  2  0  0  0  0  0  0  0  0  0
   26.4080    1.8701    6.7089 C   0  0  0  0  0  0  0  0  0  0  0  0
   29.6164    3.9553    8.5956 C   0  0  2  0  0  0  0  0  0  0  0  0
   30.5190    4.7202    7.7413 C   0  0  0  0  0  0  0  0  0  0  0  0
   31.9147    4.3717    8.3169 C   0  0  0  0  0  0  0  0  0  0  0  0
   31.6228    3.1282    9.2034 C   0  0  2  0  0  0  0  0  0  0  0  0
   32.6664    2.2141    8.9259 O   0  0  0  0  0  0  0  0  0  0  0  0
   31.3599    1.3509    7.2758 H   0  0  0  0  0  0  0  0  0  0  0  0
   29.6580    1.5075    6.8752 H   0  0  0  0  0  0  0  0  0  0  0  0
   30.8452    2.8527    6.5273 H   0  0  0  0  0  0  0  0  0  0  0  0
   29.4965    2.1331   10.4659 H   0  0  0  0  0  0  0  0  0  0  0  0
   30.1147    0.6944    9.5497 H   0  0  0  0  0  0  0  0  0  0  0  0
   27.7724    0.8563    9.8023 H   0  0  0  0  0  0  0  0  0  0  0  0
   28.2554    0.6867    8.1270 H   0  0  0  0  0  0  0  0  0  0  0  0
   27.2304    3.1854    9.7004 H   0  0  0  0  0  0  0  0  0  0  0  0
   28.5475    3.2481    6.9278 H   0  0  0  0  0  0  0  0  0  0  0  0
   27.5200    5.5141    8.6046 H   0  0  0  0  0  0  0  0  0  0  0  0
   28.2559    5.5355    6.9520 H   0  0  0  0  0  0  0  0  0  0  0  0
   25.7761    5.7604    7.0425 H   0  0  0  0  0  0  0  0  0  0  0  0
   26.3627    4.5389    5.9055 H   0  0  0  0  0  0  0  0  0  0  0  0
   23.7400    5.1119    7.7259 H   0  0  0  0  0  0  0  0  0  0  0  0
   23.1639    1.2345    8.4834 H   0  0  0  0  0  0  0  0  0  0  0  0
   23.6151    1.4792   10.1253 H   0  0  0  0  0  0  0  0  0  0  0  0
   25.8236    1.1480    9.7084 H   0  0  0  0  0  0  0  0  0  0  0  0
   25.2617    0.5487    8.2036 H   0  0  0  0  0  0  0  0  0  0  0  0
   27.4380    1.5695    6.5289 H   0  0  0  0  0  0  0  0  0  0  0  0
   25.8030    0.9539    6.4584 H   0  0  0  0  0  0  0  0  0  0  0  0
   26.1718    2.5507    5.8381 H   0  0  0  0  0  0  0  0  0  0  0  0
   29.4021    4.2534    9.6395 H   0  0  0  0  0  0  0  0  0  0  0  0
   30.3631    4.7910    6.7370 H   0  0  0  0  0  0  0  0  0  0  0  0
   30.3554    5.8320    8.1864 H   0  0  0  0  0  0  0  0  0  0  0  0
   32.5410    4.0456    7.4584 H   0  0  0  0  0  0  0  0  0  0  0  0
   32.3246    5.1739    8.9056 H   0  0  0  0  0  0  0  0  0  0  0  0
   31.5963    3.4079   10.2199 H   0  0  0  0  0  0  0  0  0  0  0  0
   32.8823    1.7234    9.7400 H   0  0  0  0  0  0  0  0  0  0  0  0
  2  1  1  6
  2  3  1  0
  3  4  1  0
  4  5  1  0
  5  6  1  0
  6  7  1  0
  7  8  1  0
  8  9  1  0
  9 10  2  0
 10 11  1  0
 11 12  2  0
 11 13  1  0
 13 14  1  0
 14 15  1  0
 15 16  1  6
  6 17  1  0
 17 18  1  0
 18 19  1  0
 19 20  1  0
 20 21  1  0
 17  2  1  0
 20  2  1  0
 15  5  1  0
 15  9  1  0
  1 22  1  0
  1 23  1  0
  1 24  1  0
  3 25  1  0
  3 26  1  0
  4 27  1  0
  4 28  1  0
  5 29  1  1
  6 30  1  6
  7 31  1  0
  7 32  1  0
  8 33  1  0
  8 34  1  0
 10 35  1  0
 13 36  1  0
 13 37  1  0
 14 38  1  0
 14 39  1  0
 16 40  1  0
 16 41  1  0
 16 42  1  0
 17 43  1  1
 18 44  1  0
 18 45  1  0
 19 46  1  0
 19 47  1  0
 20 48  1  1
 21 49  1  0
M  END
$$$$
