
     RDKit          3D

 49 51  0  0  0  0  0  0  0  0999 V2000
   33.1105    3.4334    8.2440 C   0  0  0  0  0  0  0  0  0  0  0  0
   32.9980    1.9489    7.9195 C   0  0  0  0  0  0  0  0  0  0  0  0
   32.1492    1.7032    6.6747 C   0  0  0  0  0  0  0  0  0  0  0  0
   32.0310    0.2177    6.3469 C   0  0  0  0  0  0  0  0  0  0  0  0
   31.1848   -0.0360    5.0924 C   0  0  0  0  0  0  0  0  0  0  0  0
   29.7620    0.3944    5.2987 C   0  0  0  0  0  0  0  0  0  0  0  0
   28.8937   -0.3879    6.0405 C   0  0  0  0  0  0  0  0  0  0  0  0
   27.5854    0.0222    6.2577 C   0  0  0  0  0  0  0  0  0  0  0  0
   27.1142    1.2583    5.7856 C   0  0  0  0  0  0  0  0  0  0  0  0
   27.9916    2.0209    5.0017 C   0  0  0  0  0  0  0  0  0  0  0  0
   27.5719    3.1965    4.4496 O   0  0  0  0  0  0  0  0  0  0  0  0
   29.2878    1.5829    4.7646 C   0  0  0  0  0  0  0  0  0  0  0  0
   25.7707    1.6651    6.1998 C   0  0  0  0  0  0  0  0  0  0  0  0
   25.3384    2.9882    6.1766 C   0  0  0  0  0  0  0  0  0  0  0  0
   24.0704    3.3455    6.6064 C   0  0  0  0  0  0  0  0  0  0  0  0
   23.6351    4.7799    6.5782 C   0  0  0  0  0  0  0  0  0  0  0  0
   23.2219    2.3554    7.0816 C   0  0  0  0  0  0  0  0  0  0  0  0
   23.6440    1.0395    7.1384 C   0  0  0  0  0  0  0  0  0  0  0  0
   24.9113    0.6824    6.7102 C   0  0  0  0  0  0  0  0  0  0  0  0
   25.3872   -0.7525    6.7262 C   0  0  0  0  0  0  0  0  0  0  0  0
   24.7678   -1.5888    7.8468 C   0  0  0  0  0  0  0  0  0  0  0  0
   25.0915   -1.3907    5.3579 C   0  0  0  0  0  0  0  0  0  0  0  0
   26.7969   -0.8141    6.9750 O   0  0  0  0  0  0  0  0  0  0  0  0
   33.7156    3.5872    9.1345 H   0  0  0  0  0  0  0  0  0  0  0  0
   32.1252    3.8594    8.4202 H   0  0  0  0  0  0  0  0  0  0  0  0
   33.5728    3.9708    7.4185 H   0  0  0  0  0  0  0  0  0  0  0  0
   32.5510    1.4254    8.7675 H   0  0  0  0  0  0  0  0  0  0  0  0
   33.9972    1.5344    7.7642 H   0  0  0  0  0  0  0  0  0  0  0  0
   32.5969    2.2268    5.8260 H   0  0  0  0  0  0  0  0  0  0  0  0
   31.1505    2.1160    6.8327 H   0  0  0  0  0  0  0  0  0  0  0  0
   31.5779   -0.3026    7.1931 H   0  0  0  0  0  0  0  0  0  0  0  0
   33.0292   -0.1991    6.1917 H   0  0  0  0  0  0  0  0  0  0  0  0
   31.2101   -1.1033    4.8622 H   0  0  0  0  0  0  0  0  0  0  0  0
   31.6201    0.5052    4.2500 H   0  0  0  0  0  0  0  0  0  0  0  0
   29.2098   -1.3337    6.4513 H   0  0  0  0  0  0  0  0  0  0  0  0
   28.2817    3.5562    3.9031 H   0  0  0  0  0  0  0  0  0  0  0  0
   29.9414    2.1939    4.1543 H   0  0  0  0  0  0  0  0  0  0  0  0
   26.0025    3.7548    5.8156 H   0  0  0  0  0  0  0  0  0  0  0  0
   22.5619    4.8562    6.4174 H   0  0  0  0  0  0  0  0  0  0  0  0
   23.8675    5.2584    7.5304 H   0  0  0  0  0  0  0  0  0  0  0  0
   24.1514    5.3252    5.7918 H   0  0  0  0  0  0  0  0  0  0  0  0
   22.2258    2.6128    7.4124 H   0  0  0  0  0  0  0  0  0  0  0  0
   22.9686    0.2878    7.5163 H   0  0  0  0  0  0  0  0  0  0  0  0
   23.7300   -1.8220    7.6313 H   0  0  0  0  0  0  0  0  0  0  0  0
   24.8338   -1.0579    8.7929 H   0  0  0  0  0  0  0  0  0  0  0  0
   25.3257   -2.5179    7.9315 H   0  0  0  0  0  0  0  0  0  0  0  0
   24.0233   -1.3648    5.1601 H   0  0  0  0  0  0  0  0  0  0  0  0
   25.4362   -2.4223    5.3469 H   0  0  0  0  0  0  0  0  0  0  0  0
   25.6061   -0.8404    4.5724 H   0  0  0  0  0  0  0  0  0  0  0  0
  1  2  1  0
  2  3  1  0
  3  4  1  0
  4  5  1  0
  5  6  1  0
  6  7  2  0
  7  8  1  0
  8  9  2  0
  9 10  1  0
 10 11  1  0
 10 12  2  0
  9 13  1  0
 13 14  2  0
 14 15  1  0
 15 16  1  0
 15 17  2  0
 17 18  1  0
 18 19  2  0
 19 20  1  0
 20 21  1  0
 20 22  1  0
 20 23  1  0
 12  6  1  0
 19 13  1  0
 23  8  1  0
  1 24  1  0
  1 25  1  0
  1 26  1  0
  2 27  1  0
  2 28  1  0
  3 29  1  0
  3 30  1  0
  4 31  1  0
  4 32  1  0
  5 33  1  0
  5 34  1  0
  7 35  1  0
 11 36  1  0
 12 37  1  0
 14 38  1  0
 16 39  1  0
 16 40  1  0
 16 41  1  0
 17 42  1  0
 18 43  1  0
 21 44  1  0
 21 45  1  0
 21 46  1  0
 22 47  1  0
 22 48  1  0
 22 49  1  0
M  END
$$$$
