
     RDKit          3D

 43 44  0  0  0  0  0  0  0  0999 V2000
   25.7969    3.8732    8.5479 C   0  0  0  0  0  0  0  0  0  0  0  0
   26.6056    3.4652    7.3665 C   0  0  2  0  0  0  0  0  0  0  0  0
   26.6731    4.5665    6.4712 O   0  0  0  0  0  0  0  0  0  0  0  0
   26.0437    2.3379    6.5596 C   0  0  0  0  0  0  0  0  0  0  0  0
   24.4785    2.6730    5.8646 S   0  0  0  0  0  0  0  0  0  0  0  0
   24.5630    3.8412    4.8943 O   0  0  0  0  0  0  0  0  0  0  0  0
   24.0412    1.4997    4.9909 O   0  0  0  0  0  0  0  0  0  0  0  0
   23.2590    3.0145    7.0378 C   0  0  0  0  0  0  0  0  0  0  0  0
   22.6433    1.9246    7.6615 C   0  0  0  0  0  0  0  0  0  0  0  0
   21.6443    2.0832    8.5919 C   0  0  0  0  0  0  0  0  0  0  0  0
   21.2324    3.3721    8.9240 C   0  0  0  0  0  0  0  0  0  0  0  0
   20.2576    3.5607    9.8305 F   0  0  0  0  0  0  0  0  0  0  0  0
   21.8245    4.4563    8.3227 C   0  0  0  0  0  0  0  0  0  0  0  0
   22.8162    4.2523    7.4010 C   0  0  0  0  0  0  0  0  0  0  0  0
   28.0132    3.0852    7.7644 C   0  0  0  0  0  0  0  0  0  0  0  0
   28.2372    2.1331    8.5561 O   0  0  0  0  0  0  0  0  0  0  0  0
   29.1388    3.7918    7.2572 N   0  0  0  0  0  0  0  0  0  0  0  0
   30.4251    3.3301    7.7144 C   0  0  0  0  0  0  0  0  0  0  0  0
   31.0665    2.3516    6.9796 C   0  0  0  0  0  0  0  0  0  0  0  0
   32.2968    1.9245    7.4356 C   0  0  0  0  0  0  0  0  0  0  0  0
   32.8837    2.4418    8.5805 C   0  0  0  0  0  0  0  0  0  0  0  0
   34.1768    1.9547    9.0107 C   0  0  0  0  0  0  0  0  0  0  0  0
   35.2306    1.5697    9.3537 N   0  0  0  0  0  0  0  0  0  0  0  0
   32.2188    3.4250    9.3022 C   0  0  0  0  0  0  0  0  0  0  0  0
   32.8696    3.9747   10.5413 C   0  0  0  0  0  0  0  0  0  0  0  0
   34.0761    4.5273   10.1371 F   0  0  0  0  0  0  0  0  0  0  0  0
   33.1223    2.9141   11.4103 F   0  0  0  0  0  0  0  0  0  0  0  0
   32.0549    4.9161   11.1014 F   0  0  0  0  0  0  0  0  0  0  0  0
   30.9867    3.8702    8.8681 C   0  0  0  0  0  0  0  0  0  0  0  0
   25.0531    3.0955    8.7456 H   0  0  0  0  0  0  0  0  0  0  0  0
   26.5039    3.8646    9.4353 H   0  0  0  0  0  0  0  0  0  0  0  0
   25.3964    4.8901    8.4213 H   0  0  0  0  0  0  0  0  0  0  0  0
   27.2140    4.2407    5.7051 H   0  0  0  0  0  0  0  0  0  0  0  0
   26.0797    1.3633    7.1016 H   0  0  0  0  0  0  0  0  0  0  0  0
   26.7840    2.1784    5.7144 H   0  0  0  0  0  0  0  0  0  0  0  0
   22.9367    0.9008    7.4295 H   0  0  0  0  0  0  0  0  0  0  0  0
   21.1661    1.2264    9.0768 H   0  0  0  0  0  0  0  0  0  0  0  0
   21.5438    5.4789    8.5429 H   0  0  0  0  0  0  0  0  0  0  0  0
   23.3008    5.1065    6.9102 H   0  0  0  0  0  0  0  0  0  0  0  0
   29.0226    4.5817    6.6048 H   0  0  0  0  0  0  0  0  0  0  0  0
   30.6204    1.9323    6.0757 H   0  0  0  0  0  0  0  0  0  0  0  0
   32.8234    1.1532    6.8736 H   0  0  0  0  0  0  0  0  0  0  0  0
   30.4771    4.6263    9.4244 H   0  0  0  0  0  0  0  0  0  0  0  0
  1  2  1  0
  2  3  1  6
  2  4  1  0
  4  5  1  0
  5  6  2  0
  5  7  2  0
  5  8  1  0
  8  9  2  0
  9 10  1  0
 10 11  2  0
 11 12  1  0
 11 13  1  0
 13 14  2  0
  2 15  1  0
 15 16  2  0
 15 17  1  0
 17 18  1  0
 18 19  2  0
 19 20  1  0
 20 21  2  0
 21 22  1  0
 22 23  3  0
 21 24  1  0
 24 25  1  0
 25 26  1  0
 25 27  1  0
 25 28  1  0
 24 29  2  0
 14  8  1  0
 29 18  1  0
  1 30  1  0
  1 31  1  0
  1 32  1  0
  3 33  1  0
  4 34  1  0
  4 35  1  0
  9 36  1  0
 10 37  1  0
 13 38  1  0
 14 39  1  0
 17 40  1  0
 19 41  1  0
 20 42  1  0
 29 43  1  0
M  END
$$$$
