
     RDKit          3D

 43 44  0  0  0  0  0  0  0  0999 V2000
   25.7712    4.1406    8.1780 C   0  0  0  0  0  0  0  0  0  0  0  0
   26.4505    3.8367    6.8856 C   0  0  2  0  0  0  0  0  0  0  0  0
   26.1898    4.9295    6.0096 O   0  0  0  0  0  0  0  0  0  0  0  0
   25.9172    2.6399    6.1930 C   0  0  0  0  0  0  0  0  0  0  0  0
   24.2196    2.8346    5.7782 S   0  0  0  0  0  0  0  0  0  0  0  0
   23.7327    1.6929    4.9101 O   0  0  0  0  0  0  0  0  0  0  0  0
   24.0894    4.0692    4.8803 O   0  0  0  0  0  0  0  0  0  0  0  0
   23.1379    3.0765    7.0917 C   0  0  0  0  0  0  0  0  0  0  0  0
   22.6880    1.9614    7.7894 C   0  0  0  0  0  0  0  0  0  0  0  0
   21.7951    2.0771    8.8413 C   0  0  0  0  0  0  0  0  0  0  0  0
   21.3110    3.3158    9.2434 C   0  0  0  0  0  0  0  0  0  0  0  0
   20.4467    3.4831   10.2536 F   0  0  0  0  0  0  0  0  0  0  0  0
   21.7514    4.4101    8.5600 C   0  0  0  0  0  0  0  0  0  0  0  0
   22.6415    4.2920    7.5118 C   0  0  0  0  0  0  0  0  0  0  0  0
   27.9250    3.7473    7.1251 C   0  0  0  0  0  0  0  0  0  0  0  0
   28.7431    4.5502    6.5979 O   0  0  0  0  0  0  0  0  0  0  0  0
   28.3603    2.7017    7.9849 N   0  0  0  0  0  0  0  0  0  0  0  0
   29.7849    2.6301    8.2047 C   0  0  0  0  0  0  0  0  0  0  0  0
   30.5727    1.8520    7.3482 C   0  0  0  0  0  0  0  0  0  0  0  0
   31.9544    1.7810    7.5594 C   0  0  0  0  0  0  0  0  0  0  0  0
   32.4968    2.4978    8.6286 C   0  0  0  0  0  0  0  0  0  0  0  0
   33.8950    2.4857    8.9213 C   0  0  0  0  0  0  0  0  0  0  0  0
   35.0407    2.4786    9.1409 N   0  0  0  0  0  0  0  0  0  0  0  0
   31.6816    3.2603    9.4582 C   0  0  0  0  0  0  0  0  0  0  0  0
   32.2640    4.0225   10.5963 C   0  0  0  0  0  0  0  0  0  0  0  0
   31.2952    4.7032   11.2837 F   0  0  0  0  0  0  0  0  0  0  0  0
   32.8901    3.1100   11.4232 F   0  0  0  0  0  0  0  0  0  0  0  0
   33.2580    4.8850   10.1627 F   0  0  0  0  0  0  0  0  0  0  0  0
   30.3037    3.3348    9.2526 C   0  0  0  0  0  0  0  0  0  0  0  0
   25.1274    3.3008    8.5158 H   0  0  0  0  0  0  0  0  0  0  0  0
   25.2854    5.1164    8.1217 H   0  0  0  0  0  0  0  0  0  0  0  0
   26.5722    4.2563    8.9760 H   0  0  0  0  0  0  0  0  0  0  0  0
   26.4877    4.5961    5.1255 H   0  0  0  0  0  0  0  0  0  0  0  0
   26.1022    1.6950    6.7661 H   0  0  0  0  0  0  0  0  0  0  0  0
   26.4601    2.5397    5.2008 H   0  0  0  0  0  0  0  0  0  0  0  0
   23.0158    0.9677    7.5392 H   0  0  0  0  0  0  0  0  0  0  0  0
   21.4292    1.2258    9.4007 H   0  0  0  0  0  0  0  0  0  0  0  0
   21.4278    5.4126    8.8038 H   0  0  0  0  0  0  0  0  0  0  0  0
   22.9902    5.1730    6.9686 H   0  0  0  0  0  0  0  0  0  0  0  0
   27.7080    2.0233    8.4349 H   0  0  0  0  0  0  0  0  0  0  0  0
   30.1071    1.3032    6.5186 H   0  0  0  0  0  0  0  0  0  0  0  0
   32.5925    1.1946    6.9238 H   0  0  0  0  0  0  0  0  0  0  0  0
   29.6881    3.9278    9.9019 H   0  0  0  0  0  0  0  0  0  0  0  0
  1  2  1  0
  2  3  1  6
  2  4  1  0
  4  5  1  0
  5  6  2  0
  5  7  2  0
  5  8  1  0
  8  9  2  0
  9 10  1  0
 10 11  2  0
 11 12  1  0
 11 13  1  0
 13 14  2  0
  2 15  1  0
 15 16  2  0
 15 17  1  0
 17 18  1  0
 18 19  2  0
 19 20  1  0
 20 21  2  0
 21 22  1  0
 22 23  3  0
 21 24  1  0
 24 25  1  0
 25 26  1  0
 25 27  1  0
 25 28  1  0
 24 29  2  0
 14  8  1  0
 29 18  1  0
  1 30  1  0
  1 31  1  0
  1 32  1  0
  3 33  1  0
  4 34  1  0
  4 35  1  0
  9 36  1  0
 10 37  1  0
 13 38  1  0
 14 39  1  0
 17 40  1  0
 19 41  1  0
 20 42  1  0
 29 43  1  0
M  END
$$$$
