
     RDKit          3D

 43 44  0  0  0  0  0  0  0  0999 V2000
   25.3101    1.7118    9.9483 C   0  0  0  0  0  0  0  0  0  0  0  0
   25.6551    2.1698    8.5465 C   0  0  2  0  0  0  0  0  0  0  0  0
   25.1495    3.4549    8.3883 O   0  0  0  0  0  0  0  0  0  0  0  0
   25.1306    1.2142    7.5074 C   0  0  0  0  0  0  0  0  0  0  0  0
   23.3780    1.0140    7.5352 S   0  0  0  0  0  0  0  0  0  0  0  0
   22.8697    0.3363    8.7527 O   0  0  0  0  0  0  0  0  0  0  0  0
   23.0322    0.1446    6.3508 O   0  0  0  0  0  0  0  0  0  0  0  0
   22.6319    2.5718    7.2471 C   0  0  0  0  0  0  0  0  0  0  0  0
   22.3381    2.9838    5.9600 C   0  0  0  0  0  0  0  0  0  0  0  0
   21.7499    4.2025    5.6779 C   0  0  0  0  0  0  0  0  0  0  0  0
   21.4462    5.0403    6.7463 C   0  0  0  0  0  0  0  0  0  0  0  0
   20.8741    6.2346    6.5247 F   0  0  0  0  0  0  0  0  0  0  0  0
   21.7195    4.6720    8.0312 C   0  0  0  0  0  0  0  0  0  0  0  0
   22.3072    3.4457    8.2629 C   0  0  0  0  0  0  0  0  0  0  0  0
   27.1348    2.1374    8.4513 C   0  0  0  0  0  0  0  0  0  0  0  0
   27.7005    1.0016    8.5831 O   0  0  0  0  0  0  0  0  0  0  0  0
   27.8503    3.3316    8.2241 N   0  0  0  0  0  0  0  0  0  0  0  0
   29.2779    3.2261    8.1434 C   0  0  0  0  0  0  0  0  0  0  0  0
   29.9348    2.9992    6.9491 C   0  0  0  0  0  0  0  0  0  0  0  0
   31.3289    2.9040    6.9212 C   0  0  0  0  0  0  0  0  0  0  0  0
   32.0431    3.0410    8.1121 C   0  0  0  0  0  0  0  0  0  0  0  0
   33.4673    2.9324    8.0098 C   0  0  0  0  0  0  0  0  0  0  0  0
   34.6131    2.8592    7.9417 N   0  0  0  0  0  0  0  0  0  0  0  0
   31.3963    3.2692    9.3193 C   0  0  0  0  0  0  0  0  0  0  0  0
   32.2002    3.4081   10.5604 C   0  0  0  0  0  0  0  0  0  0  0  0
   31.3122    3.6295   11.6210 F   0  0  0  0  0  0  0  0  0  0  0  0
   33.0847    4.4554   10.4342 F   0  0  0  0  0  0  0  0  0  0  0  0
   32.9257    2.2443   10.7830 F   0  0  0  0  0  0  0  0  0  0  0  0
   30.0250    3.3579    9.3147 C   0  0  0  0  0  0  0  0  0  0  0  0
   25.7035    0.6867   10.1132 H   0  0  0  0  0  0  0  0  0  0  0  0
   24.2657    1.8333   10.2275 H   0  0  0  0  0  0  0  0  0  0  0  0
   25.8938    2.3713   10.6445 H   0  0  0  0  0  0  0  0  0  0  0  0
   25.1977    3.7870    7.4599 H   0  0  0  0  0  0  0  0  0  0  0  0
   25.6315    0.2333    7.7029 H   0  0  0  0  0  0  0  0  0  0  0  0
   25.4120    1.5986    6.5127 H   0  0  0  0  0  0  0  0  0  0  0  0
   22.5752    2.3342    5.1513 H   0  0  0  0  0  0  0  0  0  0  0  0
   21.5156    4.5363    4.6821 H   0  0  0  0  0  0  0  0  0  0  0  0
   21.4885    5.3170    8.8891 H   0  0  0  0  0  0  0  0  0  0  0  0
   22.5137    3.1766    9.2861 H   0  0  0  0  0  0  0  0  0  0  0  0
   27.3535    4.2386    8.1219 H   0  0  0  0  0  0  0  0  0  0  0  0
   29.3555    2.8936    6.0194 H   0  0  0  0  0  0  0  0  0  0  0  0
   31.8451    2.7235    5.9689 H   0  0  0  0  0  0  0  0  0  0  0  0
   29.4840    3.5328   10.2208 H   0  0  0  0  0  0  0  0  0  0  0  0
  1  2  1  0
  2  3  1  6
  2  4  1  0
  4  5  1  0
  5  6  2  0
  5  7  2  0
  5  8  1  0
  8  9  2  0
  9 10  1  0
 10 11  2  0
 11 12  1  0
 11 13  1  0
 13 14  2  0
  2 15  1  0
 15 16  2  0
 15 17  1  0
 17 18  1  0
 18 19  2  0
 19 20  1  0
 20 21  2  0
 21 22  1  0
 22 23  3  0
 21 24  1  0
 24 25  1  0
 25 26  1  0
 25 27  1  0
 25 28  1  0
 24 29  2  0
 14  8  1  0
 29 18  1  0
  1 30  1  0
  1 31  1  0
  1 32  1  0
  3 33  1  0
  4 34  1  0
  4 35  1  0
  9 36  1  0
 10 37  1  0
 13 38  1  0
 14 39  1  0
 17 40  1  0
 19 41  1  0
 20 42  1  0
 29 43  1  0
M  END
$$$$
