
     RDKit          3D

 43 44  0  0  0  0  0  0  0  0999 V2000
   26.9036    3.9313    5.1482 C   0  0  0  0  0  0  0  0  0  0  0  0
   26.9488    2.8381    6.1722 C   0  0  2  0  0  0  0  0  0  0  0  0
   26.6477    1.6506    5.4693 O   0  0  0  0  0  0  0  0  0  0  0  0
   25.8926    2.9583    7.2322 C   0  0  0  0  0  0  0  0  0  0  0  0
   24.2554    2.9263    6.6715 S   0  0  0  0  0  0  0  0  0  0  0  0
   23.8994    3.9446    5.6643 O   0  0  0  0  0  0  0  0  0  0  0  0
   23.9481    1.5856    6.0142 O   0  0  0  0  0  0  0  0  0  0  0  0
   23.0919    3.0734    7.9869 C   0  0  0  0  0  0  0  0  0  0  0  0
   22.6101    1.9515    8.6292 C   0  0  0  0  0  0  0  0  0  0  0  0
   21.7056    2.1382    9.6458 C   0  0  0  0  0  0  0  0  0  0  0  0
   21.2747    3.3936   10.0339 C   0  0  0  0  0  0  0  0  0  0  0  0
   20.3803    3.5860   11.0385 F   0  0  0  0  0  0  0  0  0  0  0  0
   21.7533    4.5144    9.3953 C   0  0  0  0  0  0  0  0  0  0  0  0
   22.6602    4.3291    8.3758 C   0  0  0  0  0  0  0  0  0  0  0  0
   28.2938    2.6210    6.7644 C   0  0  0  0  0  0  0  0  0  0  0  0
   28.9095    1.5242    6.5755 O   0  0  0  0  0  0  0  0  0  0  0  0
   28.8637    3.6755    7.5443 N   0  0  0  0  0  0  0  0  0  0  0  0
   30.1591    3.4779    8.1200 C   0  0  0  0  0  0  0  0  0  0  0  0
   31.2471    3.8713    7.3305 C   0  0  0  0  0  0  0  0  0  0  0  0
   32.5226    3.7043    7.8347 C   0  0  0  0  0  0  0  0  0  0  0  0
   32.6695    3.1622    9.0830 C   0  0  0  0  0  0  0  0  0  0  0  0
   34.0167    3.0033    9.5757 C   0  0  0  0  0  0  0  0  0  0  0  0
   35.1071    2.8932    9.9700 N   0  0  0  0  0  0  0  0  0  0  0  0
   31.6052    2.7701    9.8718 C   0  0  0  0  0  0  0  0  0  0  0  0
   31.9032    2.1962   11.2074 C   0  0  0  0  0  0  0  0  0  0  0  0
   30.7927    1.8382   11.9141 F   0  0  0  0  0  0  0  0  0  0  0  0
   32.7638    1.1245   11.0073 F   0  0  0  0  0  0  0  0  0  0  0  0
   32.6226    3.1413   11.9379 F   0  0  0  0  0  0  0  0  0  0  0  0
   30.3370    2.9340    9.3754 C   0  0  0  0  0  0  0  0  0  0  0  0
   26.1544    3.7708    4.3656 H   0  0  0  0  0  0  0  0  0  0  0  0
   26.9369    4.9504    5.5789 H   0  0  0  0  0  0  0  0  0  0  0  0
   27.8911    3.8511    4.6009 H   0  0  0  0  0  0  0  0  0  0  0  0
   27.0538    0.8933    5.9702 H   0  0  0  0  0  0  0  0  0  0  0  0
   26.0621    3.9076    7.7858 H   0  0  0  0  0  0  0  0  0  0  0  0
   26.0430    2.1431    7.9691 H   0  0  0  0  0  0  0  0  0  0  0  0
   22.9671    0.9886    8.3014 H   0  0  0  0  0  0  0  0  0  0  0  0
   21.3052    1.2865   10.1729 H   0  0  0  0  0  0  0  0  0  0  0  0
   21.4252    5.4868    9.6894 H   0  0  0  0  0  0  0  0  0  0  0  0
   23.0483    5.1930    7.8618 H   0  0  0  0  0  0  0  0  0  0  0  0
   28.3414    4.5847    7.6949 H   0  0  0  0  0  0  0  0  0  0  0  0
   31.1042    4.2990    6.3430 H   0  0  0  0  0  0  0  0  0  0  0  0
   33.3573    4.0038    7.2341 H   0  0  0  0  0  0  0  0  0  0  0  0
   29.4996    2.6418    9.9591 H   0  0  0  0  0  0  0  0  0  0  0  0
  1  2  1  0
  2  3  1  6
  2  4  1  0
  4  5  1  0
  5  6  2  0
  5  7  2  0
  5  8  1  0
  8  9  2  0
  9 10  1  0
 10 11  2  0
 11 12  1  0
 11 13  1  0
 13 14  2  0
  2 15  1  0
 15 16  2  0
 15 17  1  0
 17 18  1  0
 18 19  2  0
 19 20  1  0
 20 21  2  0
 21 22  1  0
 22 23  3  0
 21 24  1  0
 24 25  1  0
 25 26  1  0
 25 27  1  0
 25 28  1  0
 24 29  2  0
 14  8  1  0
 29 18  1  0
  1 30  1  0
  1 31  1  0
  1 32  1  0
  3 33  1  0
  4 34  1  0
  4 35  1  0
  9 36  1  0
 10 37  1  0
 13 38  1  0
 14 39  1  0
 17 40  1  0
 19 41  1  0
 20 42  1  0
 29 43  1  0
M  END
$$$$
