
     RDKit          3D

 43 44  0  0  0  0  0  0  0  0999 V2000
   27.4413    6.0443    8.9405 C   0  0  0  0  0  0  0  0  0  0  0  0
   27.3680    4.9067    7.9379 C   0  0  2  0  0  0  0  0  0  0  0  0
   27.2521    5.4822    6.6567 O   0  0  0  0  0  0  0  0  0  0  0  0
   26.1082    4.1488    8.1940 C   0  0  0  0  0  0  0  0  0  0  0  0
   25.8772    2.7702    7.0873 S   0  0  0  0  0  0  0  0  0  0  0  0
   26.9952    1.8011    7.3411 O   0  0  0  0  0  0  0  0  0  0  0  0
   25.8347    3.1975    5.6702 O   0  0  0  0  0  0  0  0  0  0  0  0
   24.3619    1.9527    7.4840 C   0  0  0  0  0  0  0  0  0  0  0  0
   24.3140    0.9225    8.3939 C   0  0  0  0  0  0  0  0  0  0  0  0
   23.0848    0.3258    8.6563 C   0  0  0  0  0  0  0  0  0  0  0  0
   21.9318    0.7692    8.0060 C   0  0  0  0  0  0  0  0  0  0  0  0
   20.7455    0.1770    8.2738 F   0  0  0  0  0  0  0  0  0  0  0  0
   22.0013    1.8136    7.0881 C   0  0  0  0  0  0  0  0  0  0  0  0
   23.2205    2.3895    6.8420 C   0  0  0  0  0  0  0  0  0  0  0  0
   28.5748    4.0805    7.9275 C   0  0  0  0  0  0  0  0  0  0  0  0
   29.2925    3.9890    6.8873 O   0  0  0  0  0  0  0  0  0  0  0  0
   29.0207    3.3359    9.0600 N   0  0  0  0  0  0  0  0  0  0  0  0
   30.2059    2.5478    8.9895 C   0  0  0  0  0  0  0  0  0  0  0  0
   30.2317    1.2438    8.6106 C   0  0  0  0  0  0  0  0  0  0  0  0
   31.4082    0.5241    8.5589 C   0  0  0  0  0  0  0  0  0  0  0  0
   32.5969    1.1410    8.9009 C   0  0  0  0  0  0  0  0  0  0  0  0
   33.7904    0.3482    8.8302 C   0  0  0  0  0  0  0  0  0  0  0  0
   34.7432   -0.3017    8.7775 N   0  0  0  0  0  0  0  0  0  0  0  0
   32.6105    2.4495    9.2865 C   0  0  0  0  0  0  0  0  0  0  0  0
   33.9166    3.0624    9.6432 C   0  0  0  0  0  0  0  0  0  0  0  0
   33.6651    4.3751    9.9942 F   0  0  0  0  0  0  0  0  0  0  0  0
   34.5533    2.3580   10.6330 F   0  0  0  0  0  0  0  0  0  0  0  0
   34.7145    3.1110    8.4976 F   0  0  0  0  0  0  0  0  0  0  0  0
   31.4200    3.1518    9.3312 C   0  0  0  0  0  0  0  0  0  0  0  0
   27.1884    5.6480    9.9270 H   0  0  0  0  0  0  0  0  0  0  0  0
   26.8304    6.9026    8.6175 H   0  0  0  0  0  0  0  0  0  0  0  0
   28.5248    6.3321    8.9959 H   0  0  0  0  0  0  0  0  0  0  0  0
   27.8099    4.9979    5.9810 H   0  0  0  0  0  0  0  0  0  0  0  0
   25.2466    4.8387    7.9834 H   0  0  0  0  0  0  0  0  0  0  0  0
   25.9619    3.8446    9.2494 H   0  0  0  0  0  0  0  0  0  0  0  0
   25.2152    0.5842    8.8949 H   0  0  0  0  0  0  0  0  0  0  0  0
   23.0177   -0.4992    9.3788 H   0  0  0  0  0  0  0  0  0  0  0  0
   21.0869    2.1397    6.5952 H   0  0  0  0  0  0  0  0  0  0  0  0
   23.2504    3.2039    6.1209 H   0  0  0  0  0  0  0  0  0  0  0  0
   28.4335    3.4035    9.9298 H   0  0  0  0  0  0  0  0  0  0  0  0
   29.3291    0.7443    8.3418 H   0  0  0  0  0  0  0  0  0  0  0  0
   31.3722   -0.5233    8.2469 H   0  0  0  0  0  0  0  0  0  0  0  0
   31.4739    4.1894    9.6428 H   0  0  0  0  0  0  0  0  0  0  0  0
  1  2  1  0
  2  3  1  6
  2  4  1  0
  4  5  1  0
  5  6  2  0
  5  7  2  0
  5  8  1  0
  8  9  2  0
  9 10  1  0
 10 11  2  0
 11 12  1  0
 11 13  1  0
 13 14  2  0
  2 15  1  0
 15 16  2  0
 15 17  1  0
 17 18  1  0
 18 19  2  0
 19 20  1  0
 20 21  2  0
 21 22  1  0
 22 23  3  0
 21 24  1  0
 24 25  1  0
 25 26  1  0
 25 27  1  0
 25 28  1  0
 24 29  2  0
 14  8  1  0
 29 18  1  0
  1 30  1  0
  1 31  1  0
  1 32  1  0
  3 33  1  0
  4 34  1  0
  4 35  1  0
  9 36  1  0
 10 37  1  0
 13 38  1  0
 14 39  1  0
 17 40  1  0
 19 41  1  0
 20 42  1  0
 29 43  1  0
M  END
$$$$
