
     RDKit          3D

 49 51  0  0  0  0  0  0  0  0999 V2000
   34.3632    3.9024    8.5460 C   0  0  0  0  0  0  0  0  0  0  0  0
   32.8531    4.0098    8.5096 C   0  0  0  0  0  0  0  0  0  0  0  0
   32.3148    2.7002    7.9448 C   0  0  0  0  0  0  0  0  0  0  0  0
   30.8163    2.7144    7.8681 C   0  0  0  0  0  0  0  0  0  0  0  0
   30.1998    2.9103    9.2388 C   0  0  0  0  0  0  0  0  0  0  0  0
   28.7145    2.9085    9.0621 C   0  0  0  0  0  0  0  0  0  0  0  0
   28.0831    1.6913    9.1550 C   0  0  0  0  0  0  0  0  0  0  0  0
   26.6923    1.6255    8.9984 C   0  0  0  0  0  0  0  0  0  0  0  0
   26.1495    0.3623    9.1081 O   0  0  0  0  0  0  0  0  0  0  0  0
   25.9735    2.7697    8.7549 C   0  0  0  0  0  0  0  0  0  0  0  0
   26.6532    3.9618    8.6713 C   0  0  0  0  0  0  0  0  0  0  0  0
   28.0218    4.0616    8.8205 C   0  0  0  0  0  0  0  0  0  0  0  0
   25.9597    5.1263    8.4281 O   0  0  0  0  0  0  0  0  0  0  0  0
   24.5854    5.2552    8.2466 C   0  0  0  0  0  0  0  0  0  0  0  0
   24.3658    5.8911    6.8892 C   0  0  0  0  0  0  0  0  0  0  0  0
   24.0375    6.1658    9.3283 C   0  0  0  0  0  0  0  0  0  0  0  0
   23.8890    3.9219    8.3477 C   0  0  0  0  0  0  0  0  0  0  0  0
   22.5073    3.9866    8.1743 C   0  0  0  0  0  0  0  0  0  0  0  0
   21.8329    2.7903    8.2591 C   0  0  0  0  0  0  0  0  0  0  0  0
   22.4359    1.5805    8.4979 C   0  0  0  0  0  0  0  0  0  0  0  0
   21.6387    0.3417    8.5740 C   0  0  0  0  0  0  0  0  0  0  0  0
   23.8305    1.5862    8.6631 C   0  0  0  0  0  0  0  0  0  0  0  0
   24.5466    2.7537    8.5873 C   0  0  0  0  0  0  0  0  0  0  0  0
   34.6357    2.8430    8.7441 H   0  0  0  0  0  0  0  0  0  0  0  0
   34.7783    4.1850    7.5698 H   0  0  0  0  0  0  0  0  0  0  0  0
   34.7387    4.5264    9.3962 H   0  0  0  0  0  0  0  0  0  0  0  0
   32.4685    4.1291    9.5429 H   0  0  0  0  0  0  0  0  0  0  0  0
   32.4836    4.8745    7.9240 H   0  0  0  0  0  0  0  0  0  0  0  0
   32.7098    2.5790    6.9163 H   0  0  0  0  0  0  0  0  0  0  0  0
   32.6096    1.8417    8.5681 H   0  0  0  0  0  0  0  0  0  0  0  0
   30.5112    1.7203    7.4767 H   0  0  0  0  0  0  0  0  0  0  0  0
   30.4190    3.4607    7.1746 H   0  0  0  0  0  0  0  0  0  0  0  0
   30.4554    3.8828    9.6761 H   0  0  0  0  0  0  0  0  0  0  0  0
   30.5242    2.1273    9.9540 H   0  0  0  0  0  0  0  0  0  0  0  0
   28.6678    0.7836    9.3499 H   0  0  0  0  0  0  0  0  0  0  0  0
   26.4930   -0.2621    9.8326 H   0  0  0  0  0  0  0  0  0  0  0  0
   28.5653    4.9961    8.7563 H   0  0  0  0  0  0  0  0  0  0  0  0
   25.2885    6.2552    6.4117 H   0  0  0  0  0  0  0  0  0  0  0  0
   23.7173    6.8066    7.0071 H   0  0  0  0  0  0  0  0  0  0  0  0
   23.8260    5.2334    6.1858 H   0  0  0  0  0  0  0  0  0  0  0  0
   23.5072    5.5786   10.1179 H   0  0  0  0  0  0  0  0  0  0  0  0
   23.3043    6.8814    8.8881 H   0  0  0  0  0  0  0  0  0  0  0  0
   24.8404    6.7276    9.8598 H   0  0  0  0  0  0  0  0  0  0  0  0
   21.9933    4.9211    7.9841 H   0  0  0  0  0  0  0  0  0  0  0  0
   20.7597    2.7842    8.1322 H   0  0  0  0  0  0  0  0  0  0  0  0
   20.7091    0.5131    9.1904 H   0  0  0  0  0  0  0  0  0  0  0  0
   22.1882   -0.5013    8.9973 H   0  0  0  0  0  0  0  0  0  0  0  0
   21.2314    0.1525    7.5408 H   0  0  0  0  0  0  0  0  0  0  0  0
   24.2460    0.6141    8.8468 H   0  0  0  0  0  0  0  0  0  0  0  0
  1  2  1  0
  2  3  1  0
  3  4  1  0
  4  5  1  0
  5  6  1  0
  6  7  2  0
  7  8  1  0
  8  9  1  0
  8 10  2  0
 10 11  1  0
 11 12  2  0
 11 13  1  0
 13 14  1  0
 14 15  1  0
 14 16  1  0
 14 17  1  0
 17 18  2  0
 18 19  1  0
 19 20  2  0
 20 21  1  0
 20 22  1  0
 22 23  2  0
 12  6  1  0
 23 17  1  0
 23 10  1  0
  1 24  1  0
  1 25  1  0
  1 26  1  0
  2 27  1  0
  2 28  1  0
  3 29  1  0
  3 30  1  0
  4 31  1  0
  4 32  1  0
  5 33  1  0
  5 34  1  0
  7 35  1  0
  9 36  1  0
 12 37  1  0
 15 38  1  0
 15 39  1  0
 15 40  1  0
 16 41  1  0
 16 42  1  0
 16 43  1  0
 18 44  1  0
 19 45  1  0
 21 46  1  0
 21 47  1  0
 21 48  1  0
 22 49  1  0
M  END
$$$$
