
     RDKit          3D

 49 51  0  0  0  0  0  0  0  0999 V2000
   33.0530    3.9502    6.7550 C   0  0  0  0  0  0  0  0  0  0  0  0
   33.3825    2.7637    7.6188 C   0  0  0  0  0  0  0  0  0  0  0  0
   32.5554    2.8247    8.8832 C   0  0  0  0  0  0  0  0  0  0  0  0
   31.0895    2.7969    8.4572 C   0  0  0  0  0  0  0  0  0  0  0  0
   30.2489    2.8576    9.7125 C   0  0  0  0  0  0  0  0  0  0  0  0
   28.8080    2.8335    9.3549 C   0  0  0  0  0  0  0  0  0  0  0  0
   28.1740    1.6222    9.2554 C   0  0  0  0  0  0  0  0  0  0  0  0
   26.8150    1.5594    8.9200 C   0  0  0  0  0  0  0  0  0  0  0  0
   26.2925    0.2832    8.8514 O   0  0  0  0  0  0  0  0  0  0  0  0
   26.1330    2.7113    8.6947 C   0  0  0  0  0  0  0  0  0  0  0  0
   26.7466    3.9580    8.7875 C   0  0  0  0  0  0  0  0  0  0  0  0
   28.0960    3.9875    9.1220 C   0  0  0  0  0  0  0  0  0  0  0  0
   26.1262    5.1480    8.5757 O   0  0  0  0  0  0  0  0  0  0  0  0
   24.7708    5.2239    8.2345 C   0  0  0  0  0  0  0  0  0  0  0  0
   24.5521    5.9019    6.8963 C   0  0  0  0  0  0  0  0  0  0  0  0
   24.1137    6.0468    9.3536 C   0  0  0  0  0  0  0  0  0  0  0  0
   24.1113    3.9004    8.1341 C   0  0  0  0  0  0  0  0  0  0  0  0
   22.7567    3.9274    7.7955 C   0  0  0  0  0  0  0  0  0  0  0  0
   22.0696    2.7457    7.6813 C   0  0  0  0  0  0  0  0  0  0  0  0
   22.6601    1.5240    7.8871 C   0  0  0  0  0  0  0  0  0  0  0  0
   21.8996    0.2528    7.7590 C   0  0  0  0  0  0  0  0  0  0  0  0
   24.0236    1.5299    8.2264 C   0  0  0  0  0  0  0  0  0  0  0  0
   24.7358    2.7001    8.3473 C   0  0  0  0  0  0  0  0  0  0  0  0
   32.7390    4.8451    7.3288 H   0  0  0  0  0  0  0  0  0  0  0  0
   32.2820    3.7063    5.9993 H   0  0  0  0  0  0  0  0  0  0  0  0
   34.0077    4.2596    6.2494 H   0  0  0  0  0  0  0  0  0  0  0  0
   34.4648    2.6557    7.8161 H   0  0  0  0  0  0  0  0  0  0  0  0
   33.0143    1.8531    7.0630 H   0  0  0  0  0  0  0  0  0  0  0  0
   32.7792    3.7413    9.4648 H   0  0  0  0  0  0  0  0  0  0  0  0
   32.7792    1.9643    9.5455 H   0  0  0  0  0  0  0  0  0  0  0  0
   30.8547    1.8263    7.9826 H   0  0  0  0  0  0  0  0  0  0  0  0
   30.9334    3.6374    7.7786 H   0  0  0  0  0  0  0  0  0  0  0  0
   30.4614    1.9521   10.3057 H   0  0  0  0  0  0  0  0  0  0  0  0
   30.5137    3.7837   10.2787 H   0  0  0  0  0  0  0  0  0  0  0  0
   28.7523    0.7172    9.4430 H   0  0  0  0  0  0  0  0  0  0  0  0
   26.5225   -0.4687    9.5186 H   0  0  0  0  0  0  0  0  0  0  0  0
   28.6066    4.9297    9.2038 H   0  0  0  0  0  0  0  0  0  0  0  0
   24.1837    5.2045    6.1127 H   0  0  0  0  0  0  0  0  0  0  0  0
   25.4995    6.3215    6.4980 H   0  0  0  0  0  0  0  0  0  0  0  0
   23.7490    6.6492    7.0385 H   0  0  0  0  0  0  0  0  0  0  0  0
   23.0502    6.2245    9.1372 H   0  0  0  0  0  0  0  0  0  0  0  0
   24.7044    6.9843    9.4122 H   0  0  0  0  0  0  0  0  0  0  0  0
   24.2970    5.4962   10.2869 H   0  0  0  0  0  0  0  0  0  0  0  0
   22.2324    4.8596    7.6200 H   0  0  0  0  0  0  0  0  0  0  0  0
   21.0230    2.7465    7.4206 H   0  0  0  0  0  0  0  0  0  0  0  0
   21.2896    0.2476    6.8235 H   0  0  0  0  0  0  0  0  0  0  0  0
   22.5851   -0.6043    7.6750 H   0  0  0  0  0  0  0  0  0  0  0  0
   21.1810    0.1485    8.5981 H   0  0  0  0  0  0  0  0  0  0  0  0
   24.4342    0.5507    8.3758 H   0  0  0  0  0  0  0  0  0  0  0  0
  1  2  1  0
  2  3  1  0
  3  4  1  0
  4  5  1  0
  5  6  1  0
  6  7  2  0
  7  8  1  0
  8  9  1  0
  8 10  2  0
 10 11  1  0
 11 12  2  0
 11 13  1  0
 13 14  1  0
 14 15  1  0
 14 16  1  0
 14 17  1  0
 17 18  2  0
 18 19  1  0
 19 20  2  0
 20 21  1  0
 20 22  1  0
 22 23  2  0
 12  6  1  0
 23 17  1  0
 23 10  1  0
  1 24  1  0
  1 25  1  0
  1 26  1  0
  2 27  1  0
  2 28  1  0
  3 29  1  0
  3 30  1  0
  4 31  1  0
  4 32  1  0
  5 33  1  0
  5 34  1  0
  7 35  1  0
  9 36  1  0
 12 37  1  0
 15 38  1  0
 15 39  1  0
 15 40  1  0
 16 41  1  0
 16 42  1  0
 16 43  1  0
 18 44  1  0
 19 45  1  0
 21 46  1  0
 21 47  1  0
 21 48  1  0
 22 49  1  0
M  END
$$$$
