
     RDKit          3D

 49 51  0  0  0  0  0  0  0  0999 V2000
   33.1849    4.7109    7.9789 C   0  0  0  0  0  0  0  0  0  0  0  0
   33.4431    3.5384    8.8828 C   0  0  0  0  0  0  0  0  0  0  0  0
   32.8495    2.2742    8.3563 C   0  0  0  0  0  0  0  0  0  0  0  0
   31.3553    2.3225    8.1793 C   0  0  0  0  0  0  0  0  0  0  0  0
   30.5862    2.5917    9.4299 C   0  0  0  0  0  0  0  0  0  0  0  0
   29.1252    2.6324    9.2205 C   0  0  0  0  0  0  0  0  0  0  0  0
   28.4176    1.4628    9.3437 C   0  0  0  0  0  0  0  0  0  0  0  0
   27.0370    1.4528    9.1549 C   0  0  0  0  0  0  0  0  0  0  0  0
   26.4182    0.2326    9.2999 O   0  0  0  0  0  0  0  0  0  0  0  0
   26.4023    2.6280    8.8454 C   0  0  0  0  0  0  0  0  0  0  0  0
   27.1351    3.7768    8.7297 C   0  0  0  0  0  0  0  0  0  0  0  0
   28.5158    3.8243    8.9114 C   0  0  0  0  0  0  0  0  0  0  0  0
   26.5215    4.9764    8.4185 O   0  0  0  0  0  0  0  0  0  0  0  0
   25.1581    5.1739    8.1929 C   0  0  0  0  0  0  0  0  0  0  0  0
   24.9516    5.8128    6.8401 C   0  0  0  0  0  0  0  0  0  0  0  0
   24.6513    6.0901    9.2862 C   0  0  0  0  0  0  0  0  0  0  0  0
   24.4207    3.9042    8.3308 C   0  0  0  0  0  0  0  0  0  0  0  0
   23.0474    3.9609    8.1305 C   0  0  0  0  0  0  0  0  0  0  0  0
   22.2524    2.8429    8.2318 C   0  0  0  0  0  0  0  0  0  0  0  0
   22.7966    1.6340    8.5351 C   0  0  0  0  0  0  0  0  0  0  0  0
   21.9388    0.4314    8.6437 C   0  0  0  0  0  0  0  0  0  0  0  0
   24.1862    1.5716    8.7388 C   0  0  0  0  0  0  0  0  0  0  0  0
   24.9812    2.6911    8.6373 C   0  0  0  0  0  0  0  0  0  0  0  0
   33.8806    4.6769    7.0971 H   0  0  0  0  0  0  0  0  0  0  0  0
   32.1665    4.7006    7.5953 H   0  0  0  0  0  0  0  0  0  0  0  0
   33.4058    5.6264    8.5919 H   0  0  0  0  0  0  0  0  0  0  0  0
   33.1277    3.7848    9.9125 H   0  0  0  0  0  0  0  0  0  0  0  0
   34.5396    3.3836    8.9422 H   0  0  0  0  0  0  0  0  0  0  0  0
   33.1764    1.4010    8.9323 H   0  0  0  0  0  0  0  0  0  0  0  0
   33.2621    2.1407    7.3171 H   0  0  0  0  0  0  0  0  0  0  0  0
   31.0415    3.0124    7.3823 H   0  0  0  0  0  0  0  0  0  0  0  0
   31.0619    1.2959    7.8202 H   0  0  0  0  0  0  0  0  0  0  0  0
   30.7888    1.8123   10.2042 H   0  0  0  0  0  0  0  0  0  0  0  0
   30.9006    3.6017    9.7836 H   0  0  0  0  0  0  0  0  0  0  0  0
   28.9528    0.5360    9.5925 H   0  0  0  0  0  0  0  0  0  0  0  0
   26.7496   -0.6519    8.9988 H   0  0  0  0  0  0  0  0  0  0  0  0
   29.0947    4.7180    8.8225 H   0  0  0  0  0  0  0  0  0  0  0  0
   25.4981    6.7949    6.8989 H   0  0  0  0  0  0  0  0  0  0  0  0
   23.9039    6.0601    6.6764 H   0  0  0  0  0  0  0  0  0  0  0  0
   25.4442    5.2426    6.0507 H   0  0  0  0  0  0  0  0  0  0  0  0
   23.5727    6.3248    9.1716 H   0  0  0  0  0  0  0  0  0  0  0  0
   24.8007    5.5517   10.2526 H   0  0  0  0  0  0  0  0  0  0  0  0
   25.2014    7.0322    9.3717 H   0  0  0  0  0  0  0  0  0  0  0  0
   22.5577    4.8913    7.8872 H   0  0  0  0  0  0  0  0  0  0  0  0
   21.2019    2.9130    8.0734 H   0  0  0  0  0  0  0  0  0  0  0  0
   22.4948   -0.3393    9.2288 H   0  0  0  0  0  0  0  0  0  0  0  0
   21.8425    0.0014    7.6044 H   0  0  0  0  0  0  0  0  0  0  0  0
   20.9489    0.6762    9.0783 H   0  0  0  0  0  0  0  0  0  0  0  0
   24.5396    0.5856    8.9738 H   0  0  0  0  0  0  0  0  0  0  0  0
  1  2  1  0
  2  3  1  0
  3  4  1  0
  4  5  1  0
  5  6  1  0
  6  7  2  0
  7  8  1  0
  8  9  1  0
  8 10  2  0
 10 11  1  0
 11 12  2  0
 11 13  1  0
 13 14  1  0
 14 15  1  0
 14 16  1  0
 14 17  1  0
 17 18  2  0
 18 19  1  0
 19 20  2  0
 20 21  1  0
 20 22  1  0
 22 23  2  0
 12  6  1  0
 23 17  1  0
 23 10  1  0
  1 24  1  0
  1 25  1  0
  1 26  1  0
  2 27  1  0
  2 28  1  0
  3 29  1  0
  3 30  1  0
  4 31  1  0
  4 32  1  0
  5 33  1  0
  5 34  1  0
  7 35  1  0
  9 36  1  0
 12 37  1  0
 15 38  1  0
 15 39  1  0
 15 40  1  0
 16 41  1  0
 16 42  1  0
 16 43  1  0
 18 44  1  0
 19 45  1  0
 21 46  1  0
 21 47  1  0
 21 48  1  0
 22 49  1  0
M  END
$$$$
