
     RDKit          3D

 49 51  0  0  0  0  0  0  0  0999 V2000
   34.3884    3.7343    8.1630 C   0  0  0  0  0  0  0  0  0  0  0  0
   32.8712    3.8921    8.2489 C   0  0  0  0  0  0  0  0  0  0  0  0
   32.3751    2.7482    9.0761 C   0  0  0  0  0  0  0  0  0  0  0  0
   30.8731    2.7426    9.2694 C   0  0  0  0  0  0  0  0  0  0  0  0
   30.1274    2.6554    7.9829 C   0  0  0  0  0  0  0  0  0  0  0  0
   28.6764    2.6440    8.0711 C   0  0  0  0  0  0  0  0  0  0  0  0
   28.0120    1.4481    8.1849 C   0  0  0  0  0  0  0  0  0  0  0  0
   26.6164    1.4309    8.2700 C   0  0  0  0  0  0  0  0  0  0  0  0
   26.0464    0.1820    8.3814 O   0  0  0  0  0  0  0  0  0  0  0  0
   25.9246    2.6147    8.2386 C   0  0  0  0  0  0  0  0  0  0  0  0
   26.5892    3.8150    8.1246 C   0  0  0  0  0  0  0  0  0  0  0  0
   27.9873    3.8369    8.0390 C   0  0  0  0  0  0  0  0  0  0  0  0
   25.9731    5.0496    8.0855 O   0  0  0  0  0  0  0  0  0  0  0  0
   24.5783    5.1677    8.1623 C   0  0  0  0  0  0  0  0  0  0  0  0
   24.2078    5.9641    9.4136 C   0  0  0  0  0  0  0  0  0  0  0  0
   24.0603    5.9767    6.9890 C   0  0  0  0  0  0  0  0  0  0  0  0
   23.8657    3.8715    8.2852 C   0  0  0  0  0  0  0  0  0  0  0  0
   22.4793    3.9481    8.3639 C   0  0  0  0  0  0  0  0  0  0  0  0
   21.7540    2.7850    8.4794 C   0  0  0  0  0  0  0  0  0  0  0  0
   22.3359    1.5499    8.5205 C   0  0  0  0  0  0  0  0  0  0  0  0
   21.5237    0.3109    8.6459 C   0  0  0  0  0  0  0  0  0  0  0  0
   23.7372    1.5008    8.4391 C   0  0  0  0  0  0  0  0  0  0  0  0
   24.4835    2.6499    8.3233 C   0  0  0  0  0  0  0  0  0  0  0  0
   34.8134    3.4252    9.1353 H   0  0  0  0  0  0  0  0  0  0  0  0
   34.6374    2.8957    7.4487 H   0  0  0  0  0  0  0  0  0  0  0  0
   34.8355    4.6849    7.8081 H   0  0  0  0  0  0  0  0  0  0  0  0
   32.4225    3.8398    7.2447 H   0  0  0  0  0  0  0  0  0  0  0  0
   32.6436    4.8340    8.7618 H   0  0  0  0  0  0  0  0  0  0  0  0
   32.8192    2.8725   10.1046 H   0  0  0  0  0  0  0  0  0  0  0  0
   32.7399    1.7646    8.7270 H   0  0  0  0  0  0  0  0  0  0  0  0
   30.6217    3.7396    9.7314 H   0  0  0  0  0  0  0  0  0  0  0  0
   30.6533    1.9729    9.9972 H   0  0  0  0  0  0  0  0  0  0  0  0
   30.4495    1.7153    7.4847 H   0  0  0  0  0  0  0  0  0  0  0  0
   30.4179    3.4648    7.2838 H   0  0  0  0  0  0  0  0  0  0  0  0
   28.5865    0.5311    8.2068 H   0  0  0  0  0  0  0  0  0  0  0  0
   26.3532   -0.4144    9.1549 H   0  0  0  0  0  0  0  0  0  0  0  0
   28.5234    4.7892    7.9479 H   0  0  0  0  0  0  0  0  0  0  0  0
   24.7762    6.9332    9.4661 H   0  0  0  0  0  0  0  0  0  0  0  0
   24.4364    5.3088   10.2854 H   0  0  0  0  0  0  0  0  0  0  0  0
   23.1267    6.1717    9.4094 H   0  0  0  0  0  0  0  0  0  0  0  0
   22.9854    6.2236    7.1693 H   0  0  0  0  0  0  0  0  0  0  0  0
   24.2243    5.4520    6.0182 H   0  0  0  0  0  0  0  0  0  0  0  0
   24.6132    6.9587    7.0397 H   0  0  0  0  0  0  0  0  0  0  0  0
   21.9472    4.8926    8.3377 H   0  0  0  0  0  0  0  0  0  0  0  0
   20.6756    2.8286    8.5417 H   0  0  0  0  0  0  0  0  0  0  0  0
   21.1612    0.2428    9.7072 H   0  0  0  0  0  0  0  0  0  0  0  0
   22.1717   -0.5784    8.4400 H   0  0  0  0  0  0  0  0  0  0  0  0
   20.6516    0.2942    7.9843 H   0  0  0  0  0  0  0  0  0  0  0  0
   24.1382    0.5073    8.4763 H   0  0  0  0  0  0  0  0  0  0  0  0
  1  2  1  0
  2  3  1  0
  3  4  1  0
  4  5  1  0
  5  6  1  0
  6  7  2  0
  7  8  1  0
  8  9  1  0
  8 10  2  0
 10 11  1  0
 11 12  2  0
 11 13  1  0
 13 14  1  0
 14 15  1  0
 14 16  1  0
 14 17  1  0
 17 18  2  0
 18 19  1  0
 19 20  2  0
 20 21  1  0
 20 22  1  0
 22 23  2  0
 12  6  1  0
 23 17  1  0
 23 10  1  0
  1 24  1  0
  1 25  1  0
  1 26  1  0
  2 27  1  0
  2 28  1  0
  3 29  1  0
  3 30  1  0
  4 31  1  0
  4 32  1  0
  5 33  1  0
  5 34  1  0
  7 35  1  0
  9 36  1  0
 12 37  1  0
 15 38  1  0
 15 39  1  0
 15 40  1  0
 16 41  1  0
 16 42  1  0
 16 43  1  0
 18 44  1  0
 19 45  1  0
 21 46  1  0
 21 47  1  0
 21 48  1  0
 22 49  1  0
M  END
$$$$
