
     RDKit          3D

 49 51  0  0  0  0  0  0  0  0999 V2000
   33.1494    4.5822    7.9584 C   0  0  0  0  0  0  0  0  0  0  0  0
   33.4202    3.4750    8.9720 C   0  0  0  0  0  0  0  0  0  0  0  0
   32.8899    2.2086    8.4012 C   0  0  0  0  0  0  0  0  0  0  0  0
   31.4137    2.2464    8.1075 C   0  0  0  0  0  0  0  0  0  0  0  0
   30.6518    2.5035    9.3427 C   0  0  0  0  0  0  0  0  0  0  0  0
   29.1831    2.5479    9.1615 C   0  0  0  0  0  0  0  0  0  0  0  0
   28.4856    1.3725    9.2934 C   0  0  0  0  0  0  0  0  0  0  0  0
   27.0949    1.3791    9.1282 C   0  0  0  0  0  0  0  0  0  0  0  0
   26.4798    0.1549    9.2788 O   0  0  0  0  0  0  0  0  0  0  0  0
   26.4487    2.5547    8.8378 C   0  0  0  0  0  0  0  0  0  0  0  0
   27.1827    3.7079    8.7141 C   0  0  0  0  0  0  0  0  0  0  0  0
   28.5683    3.7438    8.8710 C   0  0  0  0  0  0  0  0  0  0  0  0
   26.5630    4.8922    8.4252 O   0  0  0  0  0  0  0  0  0  0  0  0
   25.2011    5.0922    8.2282 C   0  0  0  0  0  0  0  0  0  0  0  0
   24.6060    6.0244    9.2904 C   0  0  0  0  0  0  0  0  0  0  0  0
   24.9719    5.7534    6.8987 C   0  0  0  0  0  0  0  0  0  0  0  0
   24.4295    3.8118    8.3705 C   0  0  0  0  0  0  0  0  0  0  0  0
   23.0549    3.9412    8.1848 C   0  0  0  0  0  0  0  0  0  0  0  0
   22.3126    2.7893    8.3073 C   0  0  0  0  0  0  0  0  0  0  0  0
   22.8439    1.5561    8.5947 C   0  0  0  0  0  0  0  0  0  0  0  0
   21.9909    0.3435    8.7151 C   0  0  0  0  0  0  0  0  0  0  0  0
   24.2368    1.4903    8.7709 C   0  0  0  0  0  0  0  0  0  0  0  0
   25.0300    2.6096    8.6605 C   0  0  0  0  0  0  0  0  0  0  0  0
   34.0483    5.2366    7.9097 H   0  0  0  0  0  0  0  0  0  0  0  0
   32.9876    4.1438    6.9404 H   0  0  0  0  0  0  0  0  0  0  0  0
   32.2346    5.1287    8.2130 H   0  0  0  0  0  0  0  0  0  0  0  0
   32.9318    3.6973    9.9377 H   0  0  0  0  0  0  0  0  0  0  0  0
   34.5212    3.3601    9.1088 H   0  0  0  0  0  0  0  0  0  0  0  0
   33.0755    1.3320    9.0818 H   0  0  0  0  0  0  0  0  0  0  0  0
   33.4525    1.9604    7.4575 H   0  0  0  0  0  0  0  0  0  0  0  0
   31.1803    1.3015    7.5943 H   0  0  0  0  0  0  0  0  0  0  0  0
   31.2752    3.1309    7.4260 H   0  0  0  0  0  0  0  0  0  0  0  0
   30.9499    3.5073    9.7591 H   0  0  0  0  0  0  0  0  0  0  0  0
   30.8734    1.7543   10.1274 H   0  0  0  0  0  0  0  0  0  0  0  0
   29.0163    0.4585    9.5226 H   0  0  0  0  0  0  0  0  0  0  0  0
   26.7099   -0.6769    8.7895 H   0  0  0  0  0  0  0  0  0  0  0  0
   29.1216    4.6691    8.7676 H   0  0  0  0  0  0  0  0  0  0  0  0
   25.2041    5.8839   10.1990 H   0  0  0  0  0  0  0  0  0  0  0  0
   24.5880    7.0560    8.9099 H   0  0  0  0  0  0  0  0  0  0  0  0
   23.5578    5.7374    9.5332 H   0  0  0  0  0  0  0  0  0  0  0  0
   25.6594    5.4239    6.1051 H   0  0  0  0  0  0  0  0  0  0  0  0
   23.9323    5.7365    6.5415 H   0  0  0  0  0  0  0  0  0  0  0  0
   25.1978    6.8451    7.0712 H   0  0  0  0  0  0  0  0  0  0  0  0
   22.5807    4.8810    7.9577 H   0  0  0  0  0  0  0  0  0  0  0  0
   21.2422    2.8399    8.1718 H   0  0  0  0  0  0  0  0  0  0  0  0
   21.9252   -0.2318    7.7770 H   0  0  0  0  0  0  0  0  0  0  0  0
   22.3768   -0.3251    9.5107 H   0  0  0  0  0  0  0  0  0  0  0  0
   20.9667    0.6473    9.0034 H   0  0  0  0  0  0  0  0  0  0  0  0
   24.5950    0.5034    8.9930 H   0  0  0  0  0  0  0  0  0  0  0  0
  1  2  1  0
  2  3  1  0
  3  4  1  0
  4  5  1  0
  5  6  1  0
  6  7  2  0
  7  8  1  0
  8  9  1  0
  8 10  2  0
 10 11  1  0
 11 12  2  0
 11 13  1  0
 13 14  1  0
 14 15  1  0
 14 16  1  0
 14 17  1  0
 17 18  2  0
 18 19  1  0
 19 20  2  0
 20 21  1  0
 20 22  1  0
 22 23  2  0
 12  6  1  0
 23 17  1  0
 23 10  1  0
  1 24  1  0
  1 25  1  0
  1 26  1  0
  2 27  1  0
  2 28  1  0
  3 29  1  0
  3 30  1  0
  4 31  1  0
  4 32  1  0
  5 33  1  0
  5 34  1  0
  7 35  1  0
  9 36  1  0
 12 37  1  0
 15 38  1  0
 15 39  1  0
 15 40  1  0
 16 41  1  0
 16 42  1  0
 16 43  1  0
 18 44  1  0
 19 45  1  0
 21 46  1  0
 21 47  1  0
 21 48  1  0
 22 49  1  0
M  END
$$$$
