
     RDKit          3D

 58 62  0  0  0  0  0  0  0  0999 V2000
   26.6297    1.0786    8.1844 O   0  0  0  0  0  0  0  0  0  0  0  0
   26.5801    2.3525    8.2596 C   0  0  0  0  0  0  0  0  0  0  0  0
   25.3036    2.9138    8.2198 N   0  0  0  0  0  0  0  0  0  0  0  0
   24.0879    2.1253    8.1141 C   0  0  0  0  0  0  0  0  0  0  0  0
   22.9236    3.1081    8.0646 C   0  0  0  0  0  0  0  0  0  0  0  0
   21.6035    2.3863    8.1430 C   0  0  0  0  0  0  0  0  0  0  0  0
   21.4905    1.4947    6.9407 C   0  0  0  0  0  0  0  0  0  0  0  0
   22.6522    0.5512    6.9627 C   0  0  0  0  0  0  0  0  0  0  0  0
   22.5041   -0.3124    8.1862 C   0  0  0  0  0  0  0  0  0  0  0  0
   22.6299    0.5575    9.4180 C   0  0  0  0  0  0  0  0  0  0  0  0
   21.5870    1.6366    9.4577 C   0  0  0  0  0  0  0  0  0  0  0  0
   23.9978    1.2526    9.3483 C   0  0  0  0  0  0  0  0  0  0  0  0
   23.9979    1.2684    6.9077 C   0  0  0  0  0  0  0  0  0  0  0  0
   27.8590    3.0086    8.3710 C   0  0  0  0  0  0  0  0  0  0  0  0
   29.0210    2.3363    8.1435 N   0  0  0  0  0  0  0  0  0  0  0  0
   30.0590    3.1365    8.3200 N   0  0  0  0  0  0  0  0  0  0  0  0
   31.4566    2.7779    8.1677 C   0  0  0  0  0  0  0  0  0  0  0  0
   32.1001    2.2706    9.4112 C   0  0  0  0  0  0  0  0  0  0  0  0
   33.5379    1.9030    9.2495 C   0  0  0  0  0  0  0  0  0  0  0  0
   33.8084    0.8342    8.2463 C   0  0  0  0  0  0  0  0  0  0  0  0
   33.1405   -0.4755    8.5346 C   0  0  0  0  0  0  0  0  0  0  0  0
   33.5690   -0.9717    9.7675 F   0  0  0  0  0  0  0  0  0  0  0  0
   29.6342    4.3613    8.6694 C   0  0  0  0  0  0  0  0  0  0  0  0
   30.3253    5.5169    8.9641 C   0  0  0  0  0  0  0  0  0  0  0  0
   29.6283    6.6630    9.3127 C   0  0  0  0  0  0  0  0  0  0  0  0
   28.2542    6.5591    9.3400 C   0  0  0  0  0  0  0  0  0  0  0  0
   27.5690    5.4037    9.0450 C   0  0  0  0  0  0  0  0  0  0  0  0
   28.2561    4.2719    8.6994 C   0  0  0  0  0  0  0  0  0  0  0  0
   25.1979    3.9318    8.2497 H   0  0  0  0  0  0  0  0  0  0  0  0
   23.0224    3.9410    8.7658 H   0  0  0  0  0  0  0  0  0  0  0  0
   22.9661    3.5261    7.0162 H   0  0  0  0  0  0  0  0  0  0  0  0
   20.7800    3.1001    8.1360 H   0  0  0  0  0  0  0  0  0  0  0  0
   20.5785    0.8854    6.9403 H   0  0  0  0  0  0  0  0  0  0  0  0
   21.5436    2.1181    6.0500 H   0  0  0  0  0  0  0  0  0  0  0  0
   22.6061   -0.0412    6.0295 H   0  0  0  0  0  0  0  0  0  0  0  0
   23.2470   -1.1133    8.2470 H   0  0  0  0  0  0  0  0  0  0  0  0
   21.4925   -0.7348    8.1564 H   0  0  0  0  0  0  0  0  0  0  0  0
   22.6284   -0.0236   10.3520 H   0  0  0  0  0  0  0  0  0  0  0  0
   20.5914    1.2991    9.7479 H   0  0  0  0  0  0  0  0  0  0  0  0
   21.9139    2.3808   10.2266 H   0  0  0  0  0  0  0  0  0  0  0  0
   24.7164    0.4182    9.2260 H   0  0  0  0  0  0  0  0  0  0  0  0
   24.1705    1.8222   10.2797 H   0  0  0  0  0  0  0  0  0  0  0  0
   23.9946    1.8137    5.9524 H   0  0  0  0  0  0  0  0  0  0  0  0
   24.7493    0.4698    6.9612 H   0  0  0  0  0  0  0  0  0  0  0  0
   31.9930    3.6705    7.7857 H   0  0  0  0  0  0  0  0  0  0  0  0
   31.5581    2.0069    7.3532 H   0  0  0  0  0  0  0  0  0  0  0  0
   32.0227    3.0265   10.2022 H   0  0  0  0  0  0  0  0  0  0  0  0
   31.5545    1.3742    9.7738 H   0  0  0  0  0  0  0  0  0  0  0  0
   33.8929    1.5154   10.2370 H   0  0  0  0  0  0  0  0  0  0  0  0
   34.1859    2.7666    9.0059 H   0  0  0  0  0  0  0  0  0  0  0  0
   33.5938    1.1332    7.2016 H   0  0  0  0  0  0  0  0  0  0  0  0
   34.9102    0.6368    8.2888 H   0  0  0  0  0  0  0  0  0  0  0  0
   32.0455   -0.4666    8.4709 H   0  0  0  0  0  0  0  0  0  0  0  0
   33.5613   -1.2120    7.7913 H   0  0  0  0  0  0  0  0  0  0  0  0
   31.4108    5.5693    8.9345 H   0  0  0  0  0  0  0  0  0  0  0  0
   30.1364    7.5917    9.5511 H   0  0  0  0  0  0  0  0  0  0  0  0
   27.6886    7.4420    9.6103 H   0  0  0  0  0  0  0  0  0  0  0  0
   26.5233    5.3825    9.0951 H   0  0  0  0  0  0  0  0  0  0  0  0
  1  2  2  0
  2  3  1  0
  3  4  1  0
  4  5  1  0
  5  6  1  0
  6  7  1  0
  7  8  1  0
  8  9  1  0
  9 10  1  0
 10 11  1  0
 10 12  1  0
  8 13  1  0
  2 14  1  0
 14 15  2  0
 15 16  1  0
 16 17  1  0
 17 18  1  0
 18 19  1  0
 19 20  1  0
 20 21  1  0
 21 22  1  0
 16 23  1  0
 23 24  2  0
 24 25  1  0
 25 26  2  0
 26 27  1  0
 27 28  2  0
 12  4  1  0
 28 14  1  0
 13  4  1  0
 28 23  1  0
 11  6  1  0
  3 29  1  0
  5 30  1  0
  5 31  1  0
  6 32  1  0
  7 33  1  0
  7 34  1  0
  8 35  1  0
  9 36  1  0
  9 37  1  0
 10 38  1  0
 11 39  1  0
 11 40  1  0
 12 41  1  0
 12 42  1  0
 13 43  1  0
 13 44  1  0
 17 45  1  0
 17 46  1  0
 18 47  1  0
 18 48  1  0
 19 49  1  0
 19 50  1  0
 20 51  1  0
 20 52  1  0
 21 53  1  0
 21 54  1  0
 24 55  1  0
 25 56  1  0
 26 57  1  0
 27 58  1  0
M  END
$$$$
