
     RDKit          3D

 58 62  0  0  0  0  0  0  0  0999 V2000
   25.9310    1.0286    8.3482 O   0  0  0  0  0  0  0  0  0  0  0  0
   26.0814    2.1482    7.7533 C   0  0  0  0  0  0  0  0  0  0  0  0
   24.9056    2.7569    7.2974 N   0  0  0  0  0  0  0  0  0  0  0  0
   23.5822    2.1878    7.4848 C   0  0  0  0  0  0  0  0  0  0  0  0
   23.2603    2.0520    8.9360 C   0  0  0  0  0  0  0  0  0  0  0  0
   21.8387    1.5894    9.1651 C   0  0  0  0  0  0  0  0  0  0  0  0
   20.8811    2.5674    8.5595 C   0  0  0  0  0  0  0  0  0  0  0  0
   21.1641    2.5880    7.0632 C   0  0  0  0  0  0  0  0  0  0  0  0
   20.9821    1.2233    6.4752 C   0  0  0  0  0  0  0  0  0  0  0  0
   22.0505    0.3261    7.0664 C   0  0  0  0  0  0  0  0  0  0  0  0
   21.7512    0.2028    8.5317 C   0  0  0  0  0  0  0  0  0  0  0  0
   23.4263    0.8426    6.8064 C   0  0  0  0  0  0  0  0  0  0  0  0
   22.5460    3.0979    6.8413 C   0  0  0  0  0  0  0  0  0  0  0  0
   27.4436    2.6122    7.6395 C   0  0  0  0  0  0  0  0  0  0  0  0
   28.4916    1.7879    7.8738 N   0  0  0  0  0  0  0  0  0  0  0  0
   29.6220    2.4469    7.7236 N   0  0  0  0  0  0  0  0  0  0  0  0
   30.9790    1.8441    7.9063 C   0  0  0  0  0  0  0  0  0  0  0  0
   31.4169    1.9871    9.3119 C   0  0  0  0  0  0  0  0  0  0  0  0
   32.6842    1.4512    9.7748 C   0  0  0  0  0  0  0  0  0  0  0  0
   34.0106    1.8067    9.3516 C   0  0  0  0  0  0  0  0  0  0  0  0
   34.5722    1.6755    8.0129 C   0  0  0  0  0  0  0  0  0  0  0  0
   34.0483    2.3564    6.9763 F   0  0  0  0  0  0  0  0  0  0  0  0
   29.3961    3.7260    7.3873 C   0  0  0  0  0  0  0  0  0  0  0  0
   30.2141    4.8044    7.1312 C   0  0  0  0  0  0  0  0  0  0  0  0
   29.6797    6.0377    6.8117 C   0  0  0  0  0  0  0  0  0  0  0  0
   28.3025    6.1188    6.7669 C   0  0  0  0  0  0  0  0  0  0  0  0
   27.4903    5.0406    7.0228 C   0  0  0  0  0  0  0  0  0  0  0  0
   28.0006    3.8224    7.3366 C   0  0  0  0  0  0  0  0  0  0  0  0
   24.9562    3.6472    6.7832 H   0  0  0  0  0  0  0  0  0  0  0  0
   23.9141    1.2841    9.3919 H   0  0  0  0  0  0  0  0  0  0  0  0
   23.4874    3.0026    9.4697 H   0  0  0  0  0  0  0  0  0  0  0  0
   21.7088    1.5113   10.2688 H   0  0  0  0  0  0  0  0  0  0  0  0
   21.1028    3.5522    8.9824 H   0  0  0  0  0  0  0  0  0  0  0  0
   19.8426    2.2401    8.7580 H   0  0  0  0  0  0  0  0  0  0  0  0
   20.4638    3.3360    6.6168 H   0  0  0  0  0  0  0  0  0  0  0  0
   21.0085    1.2823    5.3775 H   0  0  0  0  0  0  0  0  0  0  0  0
   20.0008    0.8404    6.8500 H   0  0  0  0  0  0  0  0  0  0  0  0
   21.9521   -0.6856    6.5997 H   0  0  0  0  0  0  0  0  0  0  0  0
   22.4569   -0.4410    9.0746 H   0  0  0  0  0  0  0  0  0  0  0  0
   20.6932   -0.1242    8.6439 H   0  0  0  0  0  0  0  0  0  0  0  0
   24.1602    0.1112    7.1400 H   0  0  0  0  0  0  0  0  0  0  0  0
   23.5599    1.0184    5.7227 H   0  0  0  0  0  0  0  0  0  0  0  0
   22.7159    3.1975    5.7404 H   0  0  0  0  0  0  0  0  0  0  0  0
   22.6266    4.1217    7.2673 H   0  0  0  0  0  0  0  0  0  0  0  0
   31.5719    2.3378    7.1353 H   0  0  0  0  0  0  0  0  0  0  0  0
   30.8457    0.7520    7.7238 H   0  0  0  0  0  0  0  0  0  0  0  0
   31.2566    3.0574    9.6910 H   0  0  0  0  0  0  0  0  0  0  0  0
   30.6050    1.4548    9.9252 H   0  0  0  0  0  0  0  0  0  0  0  0
   32.5513    0.2953    9.7548 H   0  0  0  0  0  0  0  0  0  0  0  0
   32.6704    1.5844   10.9274 H   0  0  0  0  0  0  0  0  0  0  0  0
   34.7383    1.2350   10.0417 H   0  0  0  0  0  0  0  0  0  0  0  0
   34.2712    2.8837    9.6843 H   0  0  0  0  0  0  0  0  0  0  0  0
   34.7993    0.5892    7.7250 H   0  0  0  0  0  0  0  0  0  0  0  0
   35.6445    2.0672    8.0942 H   0  0  0  0  0  0  0  0  0  0  0  0
   31.2743    4.6694    7.1842 H   0  0  0  0  0  0  0  0  0  0  0  0
   30.2896    6.9065    6.6041 H   0  0  0  0  0  0  0  0  0  0  0  0
   27.8657    7.0651    6.5218 H   0  0  0  0  0  0  0  0  0  0  0  0
   26.4401    5.1769    6.9855 H   0  0  0  0  0  0  0  0  0  0  0  0
  1  2  2  0
  2  3  1  0
  3  4  1  0
  4  5  1  0
  5  6  1  0
  6  7  1  0
  7  8  1  0
  8  9  1  0
  9 10  1  0
 10 11  1  0
 10 12  1  0
  8 13  1  0
  2 14  1  0
 14 15  2  0
 15 16  1  0
 16 17  1  0
 17 18  1  0
 18 19  1  0
 19 20  1  0
 20 21  1  0
 21 22  1  0
 16 23  1  0
 23 24  2  0
 24 25  1  0
 25 26  2  0
 26 27  1  0
 27 28  2  0
 12  4  1  0
 28 14  1  0
 13  4  1  0
 28 23  1  0
 11  6  1  0
  3 29  1  0
  5 30  1  0
  5 31  1  0
  6 32  1  0
  7 33  1  0
  7 34  1  0
  8 35  1  0
  9 36  1  0
  9 37  1  0
 10 38  1  0
 11 39  1  0
 11 40  1  0
 12 41  1  0
 12 42  1  0
 13 43  1  0
 13 44  1  0
 17 45  1  0
 17 46  1  0
 18 47  1  0
 18 48  1  0
 19 49  1  0
 19 50  1  0
 20 51  1  0
 20 52  1  0
 21 53  1  0
 21 54  1  0
 24 55  1  0
 25 56  1  0
 26 57  1  0
 27 58  1  0
M  END
$$$$
