
     RDKit          3D

 58 62  0  0  0  0  0  0  0  0999 V2000
   25.7320    4.0240    8.3673 O   0  0  0  0  0  0  0  0  0  0  0  0
   26.5401    3.0523    8.2032 C   0  0  0  0  0  0  0  0  0  0  0  0
   26.0331    1.7608    7.9828 N   0  0  0  0  0  0  0  0  0  0  0  0
   24.6322    1.4185    7.9224 C   0  0  0  0  0  0  0  0  0  0  0  0
   24.4574   -0.0699    7.6691 C   0  0  0  0  0  0  0  0  0  0  0  0
   23.0145   -0.4433    7.7500 C   0  0  0  0  0  0  0  0  0  0  0  0
   22.2886    0.3372    6.6754 C   0  0  0  0  0  0  0  0  0  0  0  0
   22.4048    1.7843    7.0286 C   0  0  0  0  0  0  0  0  0  0  0  0
   21.8464    2.1193    8.3908 C   0  0  0  0  0  0  0  0  0  0  0  0
   22.6034    1.3167    9.4124 C   0  0  0  0  0  0  0  0  0  0  0  0
   22.4383   -0.1485    9.1134 C   0  0  0  0  0  0  0  0  0  0  0  0
   24.0600    1.7037    9.2961 C   0  0  0  0  0  0  0  0  0  0  0  0
   23.8570    2.2200    6.9052 C   0  0  0  0  0  0  0  0  0  0  0  0
   27.9817    3.2861    8.2452 C   0  0  0  0  0  0  0  0  0  0  0  0
   28.9909    2.4324    8.1017 N   0  0  0  0  0  0  0  0  0  0  0  0
   30.1590    3.0619    8.2104 N   0  0  0  0  0  0  0  0  0  0  0  0
   31.5013    2.4073    8.1014 C   0  0  0  0  0  0  0  0  0  0  0  0
   31.9389    1.9604    9.4320 C   0  0  0  0  0  0  0  0  0  0  0  0
   33.2797    1.3337    9.4604 C   0  0  0  0  0  0  0  0  0  0  0  0
   33.6065    0.0863    8.7848 C   0  0  0  0  0  0  0  0  0  0  0  0
   33.4839   -0.0791    7.3279 C   0  0  0  0  0  0  0  0  0  0  0  0
   33.9769   -1.3907    7.0435 F   0  0  0  0  0  0  0  0  0  0  0  0
   29.9627    4.3757    8.4333 C   0  0  0  0  0  0  0  0  0  0  0  0
   30.8282    5.4335    8.6143 C   0  0  0  0  0  0  0  0  0  0  0  0
   30.2996    6.6885    8.8267 C   0  0  0  0  0  0  0  0  0  0  0  0
   28.9234    6.8942    8.8595 C   0  0  0  0  0  0  0  0  0  0  0  0
   28.0903    5.7992    8.6723 C   0  0  0  0  0  0  0  0  0  0  0  0
   28.5840    4.5282    8.4571 C   0  0  0  0  0  0  0  0  0  0  0  0
   26.7505    0.9871    7.8523 H   0  0  0  0  0  0  0  0  0  0  0  0
   24.9824   -0.6085    8.4813 H   0  0  0  0  0  0  0  0  0  0  0  0
   24.8801   -0.4111    6.7161 H   0  0  0  0  0  0  0  0  0  0  0  0
   22.9040   -1.5144    7.4896 H   0  0  0  0  0  0  0  0  0  0  0  0
   22.8775    0.1915    5.7382 H   0  0  0  0  0  0  0  0  0  0  0  0
   21.2736   -0.0062    6.4736 H   0  0  0  0  0  0  0  0  0  0  0  0
   21.7793    2.3430    6.2901 H   0  0  0  0  0  0  0  0  0  0  0  0
   20.7757    1.8984    8.3788 H   0  0  0  0  0  0  0  0  0  0  0  0
   22.0678    3.1838    8.5879 H   0  0  0  0  0  0  0  0  0  0  0  0
   22.2854    1.5767   10.4305 H   0  0  0  0  0  0  0  0  0  0  0  0
   21.3570   -0.3737    9.1258 H   0  0  0  0  0  0  0  0  0  0  0  0
   22.9192   -0.8002    9.8426 H   0  0  0  0  0  0  0  0  0  0  0  0
   24.6528    1.1447   10.0708 H   0  0  0  0  0  0  0  0  0  0  0  0
   24.1426    2.7740    9.5402 H   0  0  0  0  0  0  0  0  0  0  0  0
   23.8685    3.2773    7.1704 H   0  0  0  0  0  0  0  0  0  0  0  0
   24.1600    1.9898    5.8820 H   0  0  0  0  0  0  0  0  0  0  0  0
   31.3433    1.6334    7.3458 H   0  0  0  0  0  0  0  0  0  0  0  0
   32.2150    3.1295    7.6617 H   0  0  0  0  0  0  0  0  0  0  0  0
   31.1648    1.3314    9.9597 H   0  0  0  0  0  0  0  0  0  0  0  0
   32.0495    2.9040   10.0745 H   0  0  0  0  0  0  0  0  0  0  0  0
   34.0596    2.1551    9.1873 H   0  0  0  0  0  0  0  0  0  0  0  0
   33.6071    1.1805   10.5655 H   0  0  0  0  0  0  0  0  0  0  0  0
   34.7131   -0.1211    9.0254 H   0  0  0  0  0  0  0  0  0  0  0  0
   33.0172   -0.7474    9.2833 H   0  0  0  0  0  0  0  0  0  0  0  0
   34.0157    0.6167    6.6929 H   0  0  0  0  0  0  0  0  0  0  0  0
   32.4109   -0.1726    6.9838 H   0  0  0  0  0  0  0  0  0  0  0  0
   31.8946    5.2340    8.5821 H   0  0  0  0  0  0  0  0  0  0  0  0
   31.0072    7.4947    8.9647 H   0  0  0  0  0  0  0  0  0  0  0  0
   28.5347    7.8952    9.0290 H   0  0  0  0  0  0  0  0  0  0  0  0
   27.0202    5.9819    8.7017 H   0  0  0  0  0  0  0  0  0  0  0  0
  1  2  2  0
  2  3  1  0
  3  4  1  0
  4  5  1  0
  5  6  1  0
  6  7  1  0
  7  8  1  0
  8  9  1  0
  9 10  1  0
 10 11  1  0
 10 12  1  0
  8 13  1  0
  2 14  1  0
 14 15  2  0
 15 16  1  0
 16 17  1  0
 17 18  1  0
 18 19  1  0
 19 20  1  0
 20 21  1  0
 21 22  1  0
 16 23  1  0
 23 24  2  0
 24 25  1  0
 25 26  2  0
 26 27  1  0
 27 28  2  0
 12  4  1  0
 28 14  1  0
 13  4  1  0
 28 23  1  0
 11  6  1  0
  3 29  1  0
  5 30  1  0
  5 31  1  0
  6 32  1  0
  7 33  1  0
  7 34  1  0
  8 35  1  0
  9 36  1  0
  9 37  1  0
 10 38  1  0
 11 39  1  0
 11 40  1  0
 12 41  1  0
 12 42  1  0
 13 43  1  0
 13 44  1  0
 17 45  1  0
 17 46  1  0
 18 47  1  0
 18 48  1  0
 19 49  1  0
 19 50  1  0
 20 51  1  0
 20 52  1  0
 21 53  1  0
 21 54  1  0
 24 55  1  0
 25 56  1  0
 26 57  1  0
 27 58  1  0
M  END
$$$$
