
     RDKit          3D

 58 62  0  0  0  0  0  0  0  0999 V2000
   25.8080    0.8828    8.4748 O   0  0  0  0  0  0  0  0  0  0  0  0
   25.9142    2.1594    8.6257 C   0  0  0  0  0  0  0  0  0  0  0  0
   24.7056    2.8610    8.5785 N   0  0  0  0  0  0  0  0  0  0  0  0
   23.4128    2.2213    8.3708 C   0  0  0  0  0  0  0  0  0  0  0  0
   23.1524    1.2686    9.4843 C   0  0  0  0  0  0  0  0  0  0  0  0
   21.8019    0.6019    9.2891 C   0  0  0  0  0  0  0  0  0  0  0  0
   21.8898   -0.1411    7.9720 C   0  0  0  0  0  0  0  0  0  0  0  0
   22.0652    0.8351    6.8535 C   0  0  0  0  0  0  0  0  0  0  0  0
   20.9354    1.8416    6.8725 C   0  0  0  0  0  0  0  0  0  0  0  0
   21.0031    2.6240    8.1429 C   0  0  0  0  0  0  0  0  0  0  0  0
   20.7468    1.6613    9.3070 C   0  0  0  0  0  0  0  0  0  0  0  0
   22.3300    3.2712    8.3828 C   0  0  0  0  0  0  0  0  0  0  0  0
   23.3667    1.5711    7.0085 C   0  0  0  0  0  0  0  0  0  0  0  0
   27.2488    2.6463    8.8192 C   0  0  0  0  0  0  0  0  0  0  0  0
   28.2902    1.7837    9.0536 N   0  0  0  0  0  0  0  0  0  0  0  0
   29.4170    2.4450    9.1869 N   0  0  0  0  0  0  0  0  0  0  0  0
   30.7116    1.8439    9.4435 C   0  0  0  0  0  0  0  0  0  0  0  0
   31.3254    1.5586    8.0963 C   0  0  0  0  0  0  0  0  0  0  0  0
   32.6756    0.9320    8.1610 C   0  0  0  0  0  0  0  0  0  0  0  0
   33.6961    1.7803    8.8785 C   0  0  0  0  0  0  0  0  0  0  0  0
   35.0090    1.0295    8.8698 C   0  0  0  0  0  0  0  0  0  0  0  0
   35.4894    0.7569    7.6218 F   0  0  0  0  0  0  0  0  0  0  0  0
   29.2125    3.7650    9.0533 C   0  0  0  0  0  0  0  0  0  0  0  0
   30.0381    4.8657    9.0976 C   0  0  0  0  0  0  0  0  0  0  0  0
   29.5269    6.1341    8.9100 C   0  0  0  0  0  0  0  0  0  0  0  0
   28.1679    6.2238    8.6806 C   0  0  0  0  0  0  0  0  0  0  0  0
   27.3469    5.1248    8.6372 C   0  0  0  0  0  0  0  0  0  0  0  0
   27.8361    3.8772    8.8205 C   0  0  0  0  0  0  0  0  0  0  0  0
   24.7037    3.8775    8.7073 H   0  0  0  0  0  0  0  0  0  0  0  0
   23.8728    0.4715    9.6353 H   0  0  0  0  0  0  0  0  0  0  0  0
   23.0808    1.8900   10.4207 H   0  0  0  0  0  0  0  0  0  0  0  0
   21.6130   -0.1110   10.1170 H   0  0  0  0  0  0  0  0  0  0  0  0
   21.0523   -0.8304    7.8335 H   0  0  0  0  0  0  0  0  0  0  0  0
   22.8412   -0.7402    8.0258 H   0  0  0  0  0  0  0  0  0  0  0  0
   22.0110    0.3101    5.8825 H   0  0  0  0  0  0  0  0  0  0  0  0
   20.9603    2.4652    5.9753 H   0  0  0  0  0  0  0  0  0  0  0  0
   19.9654    1.3001    6.8612 H   0  0  0  0  0  0  0  0  0  0  0  0
   20.2315    3.4204    8.1582 H   0  0  0  0  0  0  0  0  0  0  0  0
   19.7310    1.2657    9.1364 H   0  0  0  0  0  0  0  0  0  0  0  0
   20.7972    2.1656   10.2771 H   0  0  0  0  0  0  0  0  0  0  0  0
   22.3262    3.7231    9.3826 H   0  0  0  0  0  0  0  0  0  0  0  0
   22.5768    3.9922    7.5714 H   0  0  0  0  0  0  0  0  0  0  0  0
   23.3674    2.4133    6.2596 H   0  0  0  0  0  0  0  0  0  0  0  0
   24.2220    0.9456    6.7632 H   0  0  0  0  0  0  0  0  0  0  0  0
   30.5373    0.9260   10.0335 H   0  0  0  0  0  0  0  0  0  0  0  0
   31.2907    2.5324   10.0600 H   0  0  0  0  0  0  0  0  0  0  0  0
   30.6561    0.7978    7.6049 H   0  0  0  0  0  0  0  0  0  0  0  0
   31.2966    2.4343    7.4489 H   0  0  0  0  0  0  0  0  0  0  0  0
   32.6418   -0.1190    8.5149 H   0  0  0  0  0  0  0  0  0  0  0  0
   33.0410    0.8607    7.1098 H   0  0  0  0  0  0  0  0  0  0  0  0
   33.8204    2.7027    8.2858 H   0  0  0  0  0  0  0  0  0  0  0  0
   33.4479    2.0037    9.9219 H   0  0  0  0  0  0  0  0  0  0  0  0
   35.7580    1.7146    9.3567 H   0  0  0  0  0  0  0  0  0  0  0  0
   34.9808    0.1185    9.4825 H   0  0  0  0  0  0  0  0  0  0  0  0
   31.0903    4.7034    9.2825 H   0  0  0  0  0  0  0  0  0  0  0  0
   30.1816    7.0009    8.9458 H   0  0  0  0  0  0  0  0  0  0  0  0
   27.7616    7.2112    8.5328 H   0  0  0  0  0  0  0  0  0  0  0  0
   26.3163    5.2671    8.4458 H   0  0  0  0  0  0  0  0  0  0  0  0
  1  2  2  0
  2  3  1  0
  3  4  1  0
  4  5  1  0
  5  6  1  0
  6  7  1  0
  7  8  1  0
  8  9  1  0
  9 10  1  0
 10 11  1  0
 10 12  1  0
  8 13  1  0
  2 14  1  0
 14 15  2  0
 15 16  1  0
 16 17  1  0
 17 18  1  0
 18 19  1  0
 19 20  1  0
 20 21  1  0
 21 22  1  0
 16 23  1  0
 23 24  2  0
 24 25  1  0
 25 26  2  0
 26 27  1  0
 27 28  2  0
 12  4  1  0
 28 14  1  0
 13  4  1  0
 28 23  1  0
 11  6  1  0
  3 29  1  0
  5 30  1  0
  5 31  1  0
  6 32  1  0
  7 33  1  0
  7 34  1  0
  8 35  1  0
  9 36  1  0
  9 37  1  0
 10 38  1  0
 11 39  1  0
 11 40  1  0
 12 41  1  0
 12 42  1  0
 13 43  1  0
 13 44  1  0
 17 45  1  0
 17 46  1  0
 18 47  1  0
 18 48  1  0
 19 49  1  0
 19 50  1  0
 20 51  1  0
 20 52  1  0
 21 53  1  0
 21 54  1  0
 24 55  1  0
 25 56  1  0
 26 57  1  0
 27 58  1  0
M  END
$$$$
