
     RDKit          3D

 58 62  0  0  0  0  0  0  0  0999 V2000
   27.5038    1.2322    8.0062 O   0  0  0  0  0  0  0  0  0  0  0  0
   27.3783    2.5109    7.9277 C   0  0  0  0  0  0  0  0  0  0  0  0
   26.0716    2.9845    7.9096 N   0  0  0  0  0  0  0  0  0  0  0  0
   24.9234    2.1024    7.9815 C   0  0  0  0  0  0  0  0  0  0  0  0
   24.8490    1.2600    9.1996 C   0  0  0  0  0  0  0  0  0  0  0  0
   23.5949    0.4336    9.1487 C   0  0  0  0  0  0  0  0  0  0  0  0
   22.3293    1.2103    9.0433 C   0  0  0  0  0  0  0  0  0  0  0  0
   22.4421    2.0746    7.7900 C   0  0  0  0  0  0  0  0  0  0  0  0
   22.4708    1.1442    6.6203 C   0  0  0  0  0  0  0  0  0  0  0  0
   23.7307    0.3084    6.7049 C   0  0  0  0  0  0  0  0  0  0  0  0
   23.7075   -0.4958    7.9625 C   0  0  0  0  0  0  0  0  0  0  0  0
   24.8920    1.2781    6.7171 C   0  0  0  0  0  0  0  0  0  0  0  0
   23.6408    2.9525    7.9350 C   0  0  0  0  0  0  0  0  0  0  0  0
   28.6205    3.2402    7.8687 C   0  0  0  0  0  0  0  0  0  0  0  0
   29.8052    2.5929    7.6779 N   0  0  0  0  0  0  0  0  0  0  0  0
   30.8058    3.4581    7.6714 N   0  0  0  0  0  0  0  0  0  0  0  0
   32.2045    3.1347    7.4938 C   0  0  0  0  0  0  0  0  0  0  0  0
   32.9271    2.8516    8.7628 C   0  0  0  0  0  0  0  0  0  0  0  0
   32.3821    1.6975    9.5529 C   0  0  0  0  0  0  0  0  0  0  0  0
   32.4159    0.3975    8.7958 C   0  0  0  0  0  0  0  0  0  0  0  0
   31.8428   -0.6863    9.6939 C   0  0  0  0  0  0  0  0  0  0  0  0
   30.5375   -0.3879   10.0465 F   0  0  0  0  0  0  0  0  0  0  0  0
   30.3475    4.7067    7.8551 C   0  0  0  0  0  0  0  0  0  0  0  0
   30.9595    5.9339    7.9344 C   0  0  0  0  0  0  0  0  0  0  0  0
   30.2135    7.0796    8.1441 C   0  0  0  0  0  0  0  0  0  0  0  0
   28.8490    6.9080    8.2651 C   0  0  0  0  0  0  0  0  0  0  0  0
   28.2379    5.6806    8.1855 C   0  0  0  0  0  0  0  0  0  0  0  0
   28.9616    4.5494    7.9786 C   0  0  0  0  0  0  0  0  0  0  0  0
   25.8869    3.9909    7.8295 H   0  0  0  0  0  0  0  0  0  0  0  0
   24.7659    1.8895   10.1031 H   0  0  0  0  0  0  0  0  0  0  0  0
   25.6828    0.5331    9.2545 H   0  0  0  0  0  0  0  0  0  0  0  0
   23.5526   -0.1430   10.1012 H   0  0  0  0  0  0  0  0  0  0  0  0
   21.5089    0.4730    8.9254 H   0  0  0  0  0  0  0  0  0  0  0  0
   22.1204    1.8666    9.8923 H   0  0  0  0  0  0  0  0  0  0  0  0
   21.5470    2.7354    7.7593 H   0  0  0  0  0  0  0  0  0  0  0  0
   22.4914    1.6779    5.6553 H   0  0  0  0  0  0  0  0  0  0  0  0
   21.6061    0.4588    6.7332 H   0  0  0  0  0  0  0  0  0  0  0  0
   23.8601   -0.3559    5.8504 H   0  0  0  0  0  0  0  0  0  0  0  0
   22.9528   -1.2880    7.9339 H   0  0  0  0  0  0  0  0  0  0  0  0
   24.6929   -1.0146    8.0778 H   0  0  0  0  0  0  0  0  0  0  0  0
   24.6965    1.9930    5.8650 H   0  0  0  0  0  0  0  0  0  0  0  0
   25.8443    0.7924    6.4584 H   0  0  0  0  0  0  0  0  0  0  0  0
   23.6878    3.6870    7.1174 H   0  0  0  0  0  0  0  0  0  0  0  0
   23.5389    3.4935    8.8926 H   0  0  0  0  0  0  0  0  0  0  0  0
   32.7281    3.9951    7.0199 H   0  0  0  0  0  0  0  0  0  0  0  0
   32.3571    2.2735    6.7790 H   0  0  0  0  0  0  0  0  0  0  0  0
   33.9790    2.6497    8.5126 H   0  0  0  0  0  0  0  0  0  0  0  0
   32.9230    3.7252    9.4212 H   0  0  0  0  0  0  0  0  0  0  0  0
   33.0693    1.5669   10.4294 H   0  0  0  0  0  0  0  0  0  0  0  0
   31.3818    1.8891    9.9729 H   0  0  0  0  0  0  0  0  0  0  0  0
   31.8130    0.4075    7.8848 H   0  0  0  0  0  0  0  0  0  0  0  0
   33.4720    0.1321    8.5920 H   0  0  0  0  0  0  0  0  0  0  0  0
   32.4040   -0.7735   10.6477 H   0  0  0  0  0  0  0  0  0  0  0  0
   31.8983   -1.6867    9.1842 H   0  0  0  0  0  0  0  0  0  0  0  0
   32.0327    6.0428    7.8364 H   0  0  0  0  0  0  0  0  0  0  0  0
   30.6515    8.0658    8.2132 H   0  0  0  0  0  0  0  0  0  0  0  0
   28.2498    7.7931    8.4299 H   0  0  0  0  0  0  0  0  0  0  0  0
   27.1946    5.6235    8.2978 H   0  0  0  0  0  0  0  0  0  0  0  0
  1  2  2  0
  2  3  1  0
  3  4  1  0
  4  5  1  0
  5  6  1  0
  6  7  1  0
  7  8  1  0
  8  9  1  0
  9 10  1  0
 10 11  1  0
 10 12  1  0
  8 13  1  0
  2 14  1  0
 14 15  2  0
 15 16  1  0
 16 17  1  0
 17 18  1  0
 18 19  1  0
 19 20  1  0
 20 21  1  0
 21 22  1  0
 16 23  1  0
 23 24  2  0
 24 25  1  0
 25 26  2  0
 26 27  1  0
 27 28  2  0
 12  4  1  0
 28 14  1  0
 13  4  1  0
 28 23  1  0
 11  6  1  0
  3 29  1  0
  5 30  1  0
  5 31  1  0
  6 32  1  0
  7 33  1  0
  7 34  1  0
  8 35  1  0
  9 36  1  0
  9 37  1  0
 10 38  1  0
 11 39  1  0
 11 40  1  0
 12 41  1  0
 12 42  1  0
 13 43  1  0
 13 44  1  0
 17 45  1  0
 17 46  1  0
 18 47  1  0
 18 48  1  0
 19 49  1  0
 19 50  1  0
 20 51  1  0
 20 52  1  0
 21 53  1  0
 21 54  1  0
 24 55  1  0
 25 56  1  0
 26 57  1  0
 27 58  1  0
M  END
$$$$
