
     RDKit          3D

 53 54  0  0  0  0  0  0  0  0999 V2000
   21.3320   -0.6505    2.6551 C   0  0  0  0  0  0  0  0  0  0  0  0
   22.5461   -0.3513    2.7424 C   0  0  0  0  0  0  0  0  0  0  0  0
   23.3468   -0.7661    1.4493 C   0  0  0  0  0  0  0  0  0  0  0  0
   23.3925    0.2453    3.7830 C   0  0  2  0  0  0  0  0  0  0  0  0
   22.4253    0.6007    4.9712 C   0  0  0  0  0  0  0  0  0  0  0  0
   21.5819    1.7804    4.5093 C   0  0  0  0  0  0  0  0  0  0  0  0
   22.5990    2.8814    4.8286 C   0  0  0  0  0  0  0  0  0  0  0  0
   22.2381    4.0697    5.6476 C   0  0  0  0  0  0  0  0  0  0  0  0
   23.8118    2.6560    4.3339 C   0  0  0  0  0  0  0  0  0  0  0  0
   24.1765    1.4158    3.5114 C   0  0  1  0  0  0  0  0  0  0  0  0
   25.6860    1.3111    3.7756 C   0  0  0  0  0  0  0  0  0  0  0  0
   26.4485    2.4662    3.7943 C   0  0  0  0  0  0  0  0  0  0  0  0
   25.9949    3.7156    3.3639 O   0  0  0  0  0  0  0  0  0  0  0  0
   27.7788    2.4936    4.2707 C   0  0  0  0  0  0  0  0  0  0  0  0
   28.3490    1.3409    4.7245 C   0  0  0  0  0  0  0  0  0  0  0  0
   29.6195    1.1720    5.4091 C   0  0  0  0  0  0  0  0  0  0  0  0
   30.7617    0.6225    4.6744 C   0  0  0  0  0  0  0  0  0  0  0  0
   31.2849    1.4573    3.5867 C   0  0  0  0  0  0  0  0  0  0  0  0
   32.4649    0.7277    2.9682 C   0  0  0  0  0  0  0  0  0  0  0  0
   33.5590    0.5133    3.9770 C   0  0  0  0  0  0  0  0  0  0  0  0
   27.5500    0.1814    4.6814 C   0  0  0  0  0  0  0  0  0  0  0  0
   26.2542    0.1242    4.2307 C   0  0  0  0  0  0  0  0  0  0  0  0
   25.6437   -1.0936    4.2519 O   0  0  0  0  0  0  0  0  0  0  0  0
   20.4333   -0.9760    2.3384 H   0  0  0  0  0  0  0  0  0  0  0  0
   20.9062   -0.3618    3.8344 H   0  0  0  0  0  0  0  0  0  0  0  0
   23.3030   -1.8527    1.4429 H   0  0  0  0  0  0  0  0  0  0  0  0
   24.3673   -0.4257    1.4838 H   0  0  0  0  0  0  0  0  0  0  0  0
   22.8313   -0.3425    0.5649 H   0  0  0  0  0  0  0  0  0  0  0  0
   23.9225   -0.5771    4.3256 H   0  0  0  0  0  0  0  0  0  0  0  0
   23.1245    0.9276    5.7872 H   0  0  0  0  0  0  0  0  0  0  0  0
   21.9120   -0.3034    5.2872 H   0  0  0  0  0  0  0  0  0  0  0  0
   21.4693    1.7912    3.3977 H   0  0  0  0  0  0  0  0  0  0  0  0
   20.6815    1.8179    5.0834 H   0  0  0  0  0  0  0  0  0  0  0  0
   23.0236    4.7976    5.6094 H   0  0  0  0  0  0  0  0  0  0  0  0
   22.2780    3.6738    6.7127 H   0  0  0  0  0  0  0  0  0  0  0  0
   21.2356    4.4373    5.4940 H   0  0  0  0  0  0  0  0  0  0  0  0
   24.5438    3.4278    4.5868 H   0  0  0  0  0  0  0  0  0  0  0  0
   24.0892    1.7561    2.4431 H   0  0  0  0  0  0  0  0  0  0  0  0
   25.7861    3.8492    2.4085 H   0  0  0  0  0  0  0  0  0  0  0  0
   28.3629    3.3858    4.2942 H   0  0  0  0  0  0  0  0  0  0  0  0
   29.3814    0.5904    6.3728 H   0  0  0  0  0  0  0  0  0  0  0  0
   29.8530    2.1936    5.8557 H   0  0  0  0  0  0  0  0  0  0  0  0
   30.4615   -0.3544    4.1345 H   0  0  0  0  0  0  0  0  0  0  0  0
   31.5469    0.2095    5.3802 H   0  0  0  0  0  0  0  0  0  0  0  0
   31.6260    2.4498    4.0122 H   0  0  0  0  0  0  0  0  0  0  0  0
   30.5268    1.6594    2.8247 H   0  0  0  0  0  0  0  0  0  0  0  0
   32.0385   -0.2506    2.6153 H   0  0  0  0  0  0  0  0  0  0  0  0
   32.8592    1.2717    2.0883 H   0  0  0  0  0  0  0  0  0  0  0  0
   34.2326   -0.2962    3.5593 H   0  0  0  0  0  0  0  0  0  0  0  0
   34.1459    1.4741    4.0711 H   0  0  0  0  0  0  0  0  0  0  0  0
   33.2402    0.1791    4.9507 H   0  0  0  0  0  0  0  0  0  0  0  0
   27.9757   -0.7729    4.9998 H   0  0  0  0  0  0  0  0  0  0  0  0
   25.7452   -1.7274    3.4333 H   0  0  0  0  0  0  0  0  0  0  0  0
  1  2  2  0
  2  3  1  0
  2  4  1  0
  4  5  1  0
  5  6  1  0
  6  7  1  0
  7  8  1  0
  7  9  2  0
  9 10  1  0
 10 11  1  0
 11 12  2  0
 12 13  1  0
 12 14  1  0
 14 15  2  0
 15 16  1  0
 16 17  1  0
 17 18  1  0
 18 19  1  0
 19 20  1  0
 15 21  1  0
 21 22  2  0
 22 23  1  0
 10  4  1  0
 22 11  1  0
  1 24  1  0
  1 25  1  0
  3 26  1  0
  3 27  1  0
  3 28  1  0
  4 29  1  1
  5 30  1  0
  5 31  1  0
  6 32  1  0
  6 33  1  0
  8 34  1  0
  8 35  1  0
  8 36  1  0
  9 37  1  0
 10 38  1  6
 13 39  1  0
 14 40  1  0
 16 41  1  0
 16 42  1  0
 17 43  1  0
 17 44  1  0
 18 45  1  0
 18 46  1  0
 19 47  1  0
 19 48  1  0
 20 49  1  0
 20 50  1  0
 20 51  1  0
 21 52  1  0
 23 53  1  0
M  END
$$$$
