
     RDKit          3D

 53 54  0  0  0  0  0  0  0  0999 V2000
   22.6235   -0.7485    2.0270 C   0  0  0  0  0  0  0  0  0  0  0  0
   22.6286   -0.4886    3.3118 C   0  0  0  0  0  0  0  0  0  0  0  0
   21.8083   -1.4455    4.1973 C   0  0  0  0  0  0  0  0  0  0  0  0
   23.3336    0.5581    4.0394 C   0  0  2  0  0  0  0  0  0  0  0  0
   22.1136    1.4519    4.4224 C   0  0  0  0  0  0  0  0  0  0  0  0
   22.5093    2.7034    5.1345 C   0  0  0  0  0  0  0  0  0  0  0  0
   23.3878    3.4755    4.1256 C   0  0  0  0  0  0  0  0  0  0  0  0
   23.3045    4.9624    4.1074 C   0  0  0  0  0  0  0  0  0  0  0  0
   24.1270    2.7991    3.2845 C   0  0  0  0  0  0  0  0  0  0  0  0
   24.2483    1.3103    3.1682 C   0  0  1  0  0  0  0  0  0  0  0  0
   25.6877    0.9585    3.2425 C   0  0  0  0  0  0  0  0  0  0  0  0
   26.1174   -0.0629    4.0568 C   0  0  0  0  0  0  0  0  0  0  0  0
   25.2591   -0.8317    4.8373 O   0  0  0  0  0  0  0  0  0  0  0  0
   27.4633   -0.4188    4.1728 C   0  0  0  0  0  0  0  0  0  0  0  0
   28.4491    0.2694    3.4560 C   0  0  0  0  0  0  0  0  0  0  0  0
   29.8509   -0.1917    3.7444 C   0  0  0  0  0  0  0  0  0  0  0  0
   30.4503    0.6308    4.8358 C   0  0  0  0  0  0  0  0  0  0  0  0
   30.8725    2.0061    4.4604 C   0  0  0  0  0  0  0  0  0  0  0  0
   32.0839    2.0388    3.5320 C   0  0  0  0  0  0  0  0  0  0  0  0
   33.2779    1.4546    4.2736 C   0  0  0  0  0  0  0  0  0  0  0  0
   28.0410    1.2671    2.6586 C   0  0  0  0  0  0  0  0  0  0  0  0
   26.6746    1.6315    2.5335 C   0  0  0  0  0  0  0  0  0  0  0  0
   26.4256    2.6789    1.6579 O   0  0  0  0  0  0  0  0  0  0  0  0
   23.0953   -0.2654    1.2141 H   0  0  0  0  0  0  0  0  0  0  0  0
   22.0227   -1.6466    1.7039 H   0  0  0  0  0  0  0  0  0  0  0  0
   20.7506   -1.3474    3.9751 H   0  0  0  0  0  0  0  0  0  0  0  0
   22.1385   -1.3786    5.2271 H   0  0  0  0  0  0  0  0  0  0  0  0
   22.1530   -2.4480    3.8200 H   0  0  0  0  0  0  0  0  0  0  0  0
   23.6631    0.3122    5.0473 H   0  0  0  0  0  0  0  0  0  0  0  0
   21.5072    0.8478    5.1314 H   0  0  0  0  0  0  0  0  0  0  0  0
   21.5099    1.6397    3.5223 H   0  0  0  0  0  0  0  0  0  0  0  0
   23.0081    2.5985    6.0634 H   0  0  0  0  0  0  0  0  0  0  0  0
   21.5742    3.3413    5.2305 H   0  0  0  0  0  0  0  0  0  0  0  0
   22.8628    5.3919    4.9835 H   0  0  0  0  0  0  0  0  0  0  0  0
   22.7545    5.2335    3.1750 H   0  0  0  0  0  0  0  0  0  0  0  0
   24.3625    5.2955    3.8768 H   0  0  0  0  0  0  0  0  0  0  0  0
   24.6842    3.3884    2.5769 H   0  0  0  0  0  0  0  0  0  0  0  0
   23.9618    1.1084    2.0941 H   0  0  0  0  0  0  0  0  0  0  0  0
   25.5003   -1.7737    5.1112 H   0  0  0  0  0  0  0  0  0  0  0  0
   27.7247   -1.2431    4.8414 H   0  0  0  0  0  0  0  0  0  0  0  0
   30.3791   -0.0169    2.8044 H   0  0  0  0  0  0  0  0  0  0  0  0
   29.8889   -1.2902    3.9314 H   0  0  0  0  0  0  0  0  0  0  0  0
   31.2897    0.0212    5.2764 H   0  0  0  0  0  0  0  0  0  0  0  0
   29.7065    0.7342    5.6498 H   0  0  0  0  0  0  0  0  0  0  0  0
   31.1212    2.5395    5.3923 H   0  0  0  0  0  0  0  0  0  0  0  0
   30.0373    2.5712    3.9678 H   0  0  0  0  0  0  0  0  0  0  0  0
   31.8937    1.3443    2.6312 H   0  0  0  0  0  0  0  0  0  0  0  0
   32.2893    3.0600    3.2314 H   0  0  0  0  0  0  0  0  0  0  0  0
   32.9045    1.0654    5.2840 H   0  0  0  0  0  0  0  0  0  0  0  0
   33.9152    2.3449    4.6000 H   0  0  0  0  0  0  0  0  0  0  0  0
   33.8825    0.7607    3.7201 H   0  0  0  0  0  0  0  0  0  0  0  0
   28.8084    1.8038    2.0833 H   0  0  0  0  0  0  0  0  0  0  0  0
   27.0584    3.4926    1.6596 H   0  0  0  0  0  0  0  0  0  0  0  0
  1  2  2  0
  2  3  1  0
  2  4  1  0
  4  5  1  0
  5  6  1  0
  6  7  1  0
  7  8  1  0
  7  9  2  0
  9 10  1  0
 10 11  1  0
 11 12  2  0
 12 13  1  0
 12 14  1  0
 14 15  2  0
 15 16  1  0
 16 17  1  0
 17 18  1  0
 18 19  1  0
 19 20  1  0
 15 21  1  0
 21 22  2  0
 22 23  1  0
 10  4  1  0
 22 11  1  0
  1 24  1  0
  1 25  1  0
  3 26  1  0
  3 27  1  0
  3 28  1  0
  4 29  1  1
  5 30  1  0
  5 31  1  0
  6 32  1  0
  6 33  1  0
  8 34  1  0
  8 35  1  0
  8 36  1  0
  9 37  1  0
 10 38  1  6
 13 39  1  0
 14 40  1  0
 16 41  1  0
 16 42  1  0
 17 43  1  0
 17 44  1  0
 18 45  1  0
 18 46  1  0
 19 47  1  0
 19 48  1  0
 20 49  1  0
 20 50  1  0
 20 51  1  0
 21 52  1  0
 23 53  1  0
M  END
$$$$
