
     RDKit          3D

 53 54  0  0  0  0  0  0  0  0999 V2000
   22.1614   -1.7199    3.5255 C   0  0  0  0  0  0  0  0  0  0  0  0
   22.1204   -0.3777    3.2575 C   0  0  0  0  0  0  0  0  0  0  0  0
   21.3767   -0.0212    2.0532 C   0  0  0  0  0  0  0  0  0  0  0  0
   22.8436    0.5170    4.2031 C   0  0  2  0  0  0  0  0  0  0  0  0
   21.8482    1.2406    5.1541 C   0  0  0  0  0  0  0  0  0  0  0  0
   21.2190    2.3773    4.3078 C   0  0  0  0  0  0  0  0  0  0  0  0
   22.3674    3.4008    4.4008 C   0  0  0  0  0  0  0  0  0  0  0  0
   22.1808    4.7994    4.7941 C   0  0  0  0  0  0  0  0  0  0  0  0
   23.5520    2.8987    4.1211 C   0  0  0  0  0  0  0  0  0  0  0  0
   23.7892    1.4439    3.7164 C   0  0  1  0  0  0  0  0  0  0  0  0
   25.2664    1.3754    3.7318 C   0  0  0  0  0  0  0  0  0  0  0  0
   25.9395    1.4571    4.9438 C   0  0  0  0  0  0  0  0  0  0  0  0
   25.3070    1.2028    6.1484 O   0  0  0  0  0  0  0  0  0  0  0  0
   27.2777    1.8031    4.9392 C   0  0  0  0  0  0  0  0  0  0  0  0
   27.9573    2.0725    3.7644 C   0  0  0  0  0  0  0  0  0  0  0  0
   29.2475    2.6990    3.6171 C   0  0  0  0  0  0  0  0  0  0  0  0
   30.5075    2.0753    3.4051 C   0  0  0  0  0  0  0  0  0  0  0  0
   31.1008    1.1907    4.4595 C   0  0  0  0  0  0  0  0  0  0  0  0
   32.5056    0.8025    3.8592 C   0  0  0  0  0  0  0  0  0  0  0  0
   33.2573    0.0648    4.8995 C   0  0  0  0  0  0  0  0  0  0  0  0
   27.2454    1.9681    2.5246 C   0  0  0  0  0  0  0  0  0  0  0  0
   25.9260    1.6236    2.5170 C   0  0  0  0  0  0  0  0  0  0  0  0
   25.2378    1.5083    1.2994 O   0  0  0  0  0  0  0  0  0  0  0  0
   22.7198   -2.0682    4.4359 H   0  0  0  0  0  0  0  0  0  0  0  0
   21.6862   -2.4462    2.8852 H   0  0  0  0  0  0  0  0  0  0  0  0
   21.3343   -0.8870    1.3245 H   0  0  0  0  0  0  0  0  0  0  0  0
   20.3165    0.2391    2.2240 H   0  0  0  0  0  0  0  0  0  0  0  0
   21.9482    0.7512    1.5040 H   0  0  0  0  0  0  0  0  0  0  0  0
   23.2995   -0.1778    4.9736 H   0  0  0  0  0  0  0  0  0  0  0  0
   22.3628    1.6922    5.9794 H   0  0  0  0  0  0  0  0  0  0  0  0
   21.0500    0.5413    5.4275 H   0  0  0  0  0  0  0  0  0  0  0  0
   20.4333    2.7889    4.9062 H   0  0  0  0  0  0  0  0  0  0  0  0
   21.1183    2.1394    3.2832 H   0  0  0  0  0  0  0  0  0  0  0  0
   22.5905    4.9392    5.8244 H   0  0  0  0  0  0  0  0  0  0  0  0
   22.8449    5.3893    4.1188 H   0  0  0  0  0  0  0  0  0  0  0  0
   21.1472    5.1465    4.6909 H   0  0  0  0  0  0  0  0  0  0  0  0
   24.3626    3.6155    4.1809 H   0  0  0  0  0  0  0  0  0  0  0  0
   23.5050    1.5464    2.5631 H   0  0  0  0  0  0  0  0  0  0  0  0
   25.2222    0.2200    6.3783 H   0  0  0  0  0  0  0  0  0  0  0  0
   27.8521    1.8617    5.8374 H   0  0  0  0  0  0  0  0  0  0  0  0
   29.1143    3.6572    2.9658 H   0  0  0  0  0  0  0  0  0  0  0  0
   29.3644    3.2591    4.6863 H   0  0  0  0  0  0  0  0  0  0  0  0
   30.5549    1.4511    2.4330 H   0  0  0  0  0  0  0  0  0  0  0  0
   31.2831    2.8776    3.1068 H   0  0  0  0  0  0  0  0  0  0  0  0
   30.5078    0.2465    4.5976 H   0  0  0  0  0  0  0  0  0  0  0  0
   31.2239    1.7136    5.4061 H   0  0  0  0  0  0  0  0  0  0  0  0
   32.3298    0.2517    2.9099 H   0  0  0  0  0  0  0  0  0  0  0  0
   33.0541    1.7456    3.6120 H   0  0  0  0  0  0  0  0  0  0  0  0
   34.3492    0.0258    4.6313 H   0  0  0  0  0  0  0  0  0  0  0  0
   33.2077    0.7082    5.8254 H   0  0  0  0  0  0  0  0  0  0  0  0
   32.7994   -0.8845    5.0947 H   0  0  0  0  0  0  0  0  0  0  0  0
   27.7674    2.1748    1.5798 H   0  0  0  0  0  0  0  0  0  0  0  0
   25.1828    0.5659    0.8994 H   0  0  0  0  0  0  0  0  0  0  0  0
  1  2  2  0
  2  3  1  0
  2  4  1  0
  4  5  1  0
  5  6  1  0
  6  7  1  0
  7  8  1  0
  7  9  2  0
  9 10  1  0
 10 11  1  0
 11 12  2  0
 12 13  1  0
 12 14  1  0
 14 15  2  0
 15 16  1  0
 16 17  1  0
 17 18  1  0
 18 19  1  0
 19 20  1  0
 15 21  1  0
 21 22  2  0
 22 23  1  0
 10  4  1  0
 22 11  1  0
  1 24  1  0
  1 25  1  0
  3 26  1  0
  3 27  1  0
  3 28  1  0
  4 29  1  1
  5 30  1  0
  5 31  1  0
  6 32  1  0
  6 33  1  0
  8 34  1  0
  8 35  1  0
  8 36  1  0
  9 37  1  0
 10 38  1  6
 13 39  1  0
 14 40  1  0
 16 41  1  0
 16 42  1  0
 17 43  1  0
 17 44  1  0
 18 45  1  0
 18 46  1  0
 19 47  1  0
 19 48  1  0
 20 49  1  0
 20 50  1  0
 20 51  1  0
 21 52  1  0
 23 53  1  0
M  END
$$$$
