
     RDKit          3D

 53 54  0  0  0  0  0  0  0  0999 V2000
   21.6901   -1.5352    3.5245 C   0  0  0  0  0  0  0  0  0  0  0  0
   22.1683   -0.2603    3.4922 C   0  0  0  0  0  0  0  0  0  0  0  0
   21.5655    0.5452    2.3410 C   0  0  0  0  0  0  0  0  0  0  0  0
   23.1808    0.2769    4.4021 C   0  0  2  0  0  0  0  0  0  0  0  0
   22.5334    0.7087    5.6712 C   0  0  0  0  0  0  0  0  0  0  0  0
   21.6807    1.8879    5.2485 C   0  0  0  0  0  0  0  0  0  0  0  0
   22.6204    3.0090    4.9704 C   0  0  0  0  0  0  0  0  0  0  0  0
   22.3647    4.4164    5.4067 C   0  0  0  0  0  0  0  0  0  0  0  0
   23.7795    2.7372    4.2193 C   0  0  0  0  0  0  0  0  0  0  0  0
   24.0257    1.2604    3.7724 C   0  0  1  0  0  0  0  0  0  0  0  0
   25.4868    1.0504    3.6080 C   0  0  0  0  0  0  0  0  0  0  0  0
   26.0755    0.9477    2.3755 C   0  0  0  0  0  0  0  0  0  0  0  0
   25.2721    1.0093    1.2758 O   0  0  0  0  0  0  0  0  0  0  0  0
   27.4069    0.8275    2.2868 C   0  0  0  0  0  0  0  0  0  0  0  0
   28.2830    0.7758    3.4291 C   0  0  0  0  0  0  0  0  0  0  0  0
   29.6898    0.4513    3.2325 C   0  0  0  0  0  0  0  0  0  0  0  0
   30.3438   -0.1998    4.3964 C   0  0  0  0  0  0  0  0  0  0  0  0
   31.1388    0.7153    5.3206 C   0  0  0  0  0  0  0  0  0  0  0  0
   32.2130    1.3557    4.4067 C   0  0  0  0  0  0  0  0  0  0  0  0
   33.2906    1.9569    5.2584 C   0  0  0  0  0  0  0  0  0  0  0  0
   27.7430    0.8475    4.6813 C   0  0  0  0  0  0  0  0  0  0  0  0
   26.3420    0.9929    4.6553 C   0  0  0  0  0  0  0  0  0  0  0  0
   25.8567    1.1144    6.0134 O   0  0  0  0  0  0  0  0  0  0  0  0
   21.1071   -2.1769    3.1571 H   0  0  0  0  0  0  0  0  0  0  0  0
   22.4221   -2.1389    4.2234 H   0  0  0  0  0  0  0  0  0  0  0  0
   20.6357    0.0241    2.0711 H   0  0  0  0  0  0  0  0  0  0  0  0
   22.3065    0.1798    1.5236 H   0  0  0  0  0  0  0  0  0  0  0  0
   21.6025    1.5549    2.3969 H   0  0  0  0  0  0  0  0  0  0  0  0
   23.9476   -0.5531    4.7508 H   0  0  0  0  0  0  0  0  0  0  0  0
   21.9075   -0.1539    5.9966 H   0  0  0  0  0  0  0  0  0  0  0  0
   23.1714    1.0237    6.4899 H   0  0  0  0  0  0  0  0  0  0  0  0
   20.9290    1.7668    4.5202 H   0  0  0  0  0  0  0  0  0  0  0  0
   21.0796    2.1775    6.2114 H   0  0  0  0  0  0  0  0  0  0  0  0
   23.0862    4.6852    6.1964 H   0  0  0  0  0  0  0  0  0  0  0  0
   22.3823    5.1208    4.5718 H   0  0  0  0  0  0  0  0  0  0  0  0
   21.3510    4.4807    5.9266 H   0  0  0  0  0  0  0  0  0  0  0  0
   24.4266    3.5572    4.0427 H   0  0  0  0  0  0  0  0  0  0  0  0
   23.6598    1.3796    2.6869 H   0  0  0  0  0  0  0  0  0  0  0  0
   25.1079    0.1095    0.7882 H   0  0  0  0  0  0  0  0  0  0  0  0
   27.8752    0.8480    1.3188 H   0  0  0  0  0  0  0  0  0  0  0  0
   29.7150   -0.3237    2.3845 H   0  0  0  0  0  0  0  0  0  0  0  0
   30.3303    1.2736    2.8127 H   0  0  0  0  0  0  0  0  0  0  0  0
   30.9147   -1.0873    4.2039 H   0  0  0  0  0  0  0  0  0  0  0  0
   29.4958   -0.5650    5.1123 H   0  0  0  0  0  0  0  0  0  0  0  0
   30.5968    1.5011    5.8069 H   0  0  0  0  0  0  0  0  0  0  0  0
   31.6781    0.0932    6.0478 H   0  0  0  0  0  0  0  0  0  0  0  0
   32.4476    0.7013    3.6149 H   0  0  0  0  0  0  0  0  0  0  0  0
   31.6292    2.2720    3.9774 H   0  0  0  0  0  0  0  0  0  0  0  0
   32.8860    2.6106    6.0115 H   0  0  0  0  0  0  0  0  0  0  0  0
   33.8223    1.0706    5.7428 H   0  0  0  0  0  0  0  0  0  0  0  0
   34.0302    2.4464    4.5580 H   0  0  0  0  0  0  0  0  0  0  0  0
   28.2735    0.7678    5.5453 H   0  0  0  0  0  0  0  0  0  0  0  0
   25.7841    0.0744    6.3017 H   0  0  0  0  0  0  0  0  0  0  0  0
  1  2  2  0
  2  3  1  0
  2  4  1  0
  4  5  1  0
  5  6  1  0
  6  7  1  0
  7  8  1  0
  7  9  2  0
  9 10  1  0
 10 11  1  0
 11 12  2  0
 12 13  1  0
 12 14  1  0
 14 15  2  0
 15 16  1  0
 16 17  1  0
 17 18  1  0
 18 19  1  0
 19 20  1  0
 15 21  1  0
 21 22  2  0
 22 23  1  0
 10  4  1  0
 22 11  1  0
  1 24  1  0
  1 25  1  0
  3 26  1  0
  3 27  1  0
  3 28  1  0
  4 29  1  1
  5 30  1  0
  5 31  1  0
  6 32  1  0
  6 33  1  0
  8 34  1  0
  8 35  1  0
  8 36  1  0
  9 37  1  0
 10 38  1  6
 13 39  1  0
 14 40  1  0
 16 41  1  0
 16 42  1  0
 17 43  1  0
 17 44  1  0
 18 45  1  0
 18 46  1  0
 19 47  1  0
 19 48  1  0
 20 49  1  0
 20 50  1  0
 20 51  1  0
 21 52  1  0
 23 53  1  0
M  END
$$$$
