
     RDKit          3D

 53 54  0  0  0  0  0  0  0  0999 V2000
   22.6057   -1.5053    3.4308 C   0  0  0  0  0  0  0  0  0  0  0  0
   23.1662   -0.4891    4.0763 C   0  0  0  0  0  0  0  0  0  0  0  0
   23.8804   -0.6711    5.3907 C   0  0  0  0  0  0  0  0  0  0  0  0
   23.0553    0.8633    3.5462 C   0  0  2  0  0  0  0  0  0  0  0  0
   21.9757    0.9763    2.4502 C   0  0  0  0  0  0  0  0  0  0  0  0
   21.6153    2.4237    2.2059 C   0  0  0  0  0  0  0  0  0  0  0  0
   22.4608    3.3774    2.9460 C   0  0  0  0  0  0  0  0  0  0  0  0
   21.9772    4.7261    3.3189 C   0  0  0  0  0  0  0  0  0  0  0  0
   23.7121    3.0214    3.3792 C   0  0  0  0  0  0  0  0  0  0  0  0
   24.1994    1.6146    3.0670 C   0  0  1  0  0  0  0  0  0  0  0  0
   25.5527    1.3830    3.4024 C   0  0  0  0  0  0  0  0  0  0  0  0
   26.2084    0.2229    2.9048 C   0  0  0  0  0  0  0  0  0  0  0  0
   25.5317   -0.7361    2.1983 O   0  0  0  0  0  0  0  0  0  0  0  0
   27.5720   -0.0256    3.0825 C   0  0  0  0  0  0  0  0  0  0  0  0
   28.3328    0.8436    3.7541 C   0  0  0  0  0  0  0  0  0  0  0  0
   29.7888    0.8275    4.0368 C   0  0  0  0  0  0  0  0  0  0  0  0
   30.5741    1.5231    2.9046 C   0  0  0  0  0  0  0  0  0  0  0  0
   31.9200    1.9724    3.4510 C   0  0  0  0  0  0  0  0  0  0  0  0
   32.8041    0.9408    4.0143 C   0  0  0  0  0  0  0  0  0  0  0  0
   33.2547   -0.0476    2.9963 C   0  0  0  0  0  0  0  0  0  0  0  0
   27.7052    1.9837    4.2543 C   0  0  0  0  0  0  0  0  0  0  0  0
   26.3562    2.2499    4.0906 C   0  0  0  0  0  0  0  0  0  0  0  0
   25.9398    3.4386    4.6891 O   0  0  0  0  0  0  0  0  0  0  0  0
   22.6347   -2.5567    3.8119 H   0  0  0  0  0  0  0  0  0  0  0  0
   22.1338   -1.3237    2.4798 H   0  0  0  0  0  0  0  0  0  0  0  0
   23.1183   -0.8197    6.1732 H   0  0  0  0  0  0  0  0  0  0  0  0
   24.4697   -1.6335    5.3315 H   0  0  0  0  0  0  0  0  0  0  0  0
   24.5224    0.1878    5.6511 H   0  0  0  0  0  0  0  0  0  0  0  0
   22.5140    1.4197    4.4209 H   0  0  0  0  0  0  0  0  0  0  0  0
   22.3756    0.5448    1.5311 H   0  0  0  0  0  0  0  0  0  0  0  0
   21.0678    0.3279    2.7302 H   0  0  0  0  0  0  0  0  0  0  0  0
   20.5298    2.5851    2.4776 H   0  0  0  0  0  0  0  0  0  0  0  0
   21.7168    2.6339    1.1045 H   0  0  0  0  0  0  0  0  0  0  0  0
   22.3455    5.5014    2.6057 H   0  0  0  0  0  0  0  0  0  0  0  0
   20.8701    4.8021    3.3471 H   0  0  0  0  0  0  0  0  0  0  0  0
   22.3119    4.9700    4.3835 H   0  0  0  0  0  0  0  0  0  0  0  0
   24.2224    3.7702    3.9399 H   0  0  0  0  0  0  0  0  0  0  0  0
   24.1564    1.6287    1.8997 H   0  0  0  0  0  0  0  0  0  0  0  0
   25.2036   -0.6780    1.2394 H   0  0  0  0  0  0  0  0  0  0  0  0
   28.0172   -0.8975    2.6781 H   0  0  0  0  0  0  0  0  0  0  0  0
   30.1248   -0.2510    4.0114 H   0  0  0  0  0  0  0  0  0  0  0  0
   30.0553    1.2450    5.0020 H   0  0  0  0  0  0  0  0  0  0  0  0
   30.0243    2.3610    2.4827 H   0  0  0  0  0  0  0  0  0  0  0  0
   30.7285    0.7882    2.0608 H   0  0  0  0  0  0  0  0  0  0  0  0
   32.4232    2.6029    2.6513 H   0  0  0  0  0  0  0  0  0  0  0  0
   31.6329    2.7482    4.2793 H   0  0  0  0  0  0  0  0  0  0  0  0
   33.7063    1.4215    4.4819 H   0  0  0  0  0  0  0  0  0  0  0  0
   32.3501    0.3674    4.8870 H   0  0  0  0  0  0  0  0  0  0  0  0
   34.1352    0.3551    2.4439 H   0  0  0  0  0  0  0  0  0  0  0  0
   33.7460   -0.9014    3.5941 H   0  0  0  0  0  0  0  0  0  0  0  0
   32.4402   -0.4289    2.3849 H   0  0  0  0  0  0  0  0  0  0  0  0
   28.3547    2.7059    4.7748 H   0  0  0  0  0  0  0  0  0  0  0  0
   26.4967    4.2843    4.5684 H   0  0  0  0  0  0  0  0  0  0  0  0
  1  2  2  0
  2  3  1  0
  2  4  1  0
  4  5  1  0
  5  6  1  0
  6  7  1  0
  7  8  1  0
  7  9  2  0
  9 10  1  0
 10 11  1  0
 11 12  2  0
 12 13  1  0
 12 14  1  0
 14 15  2  0
 15 16  1  0
 16 17  1  0
 17 18  1  0
 18 19  1  0
 19 20  1  0
 15 21  1  0
 21 22  2  0
 22 23  1  0
 10  4  1  0
 22 11  1  0
  1 24  1  0
  1 25  1  0
  3 26  1  0
  3 27  1  0
  3 28  1  0
  4 29  1  1
  5 30  1  0
  5 31  1  0
  6 32  1  0
  6 33  1  0
  8 34  1  0
  8 35  1  0
  8 36  1  0
  9 37  1  0
 10 38  1  6
 13 39  1  0
 14 40  1  0
 16 41  1  0
 16 42  1  0
 17 43  1  0
 17 44  1  0
 18 45  1  0
 18 46  1  0
 19 47  1  0
 19 48  1  0
 20 49  1  0
 20 50  1  0
 20 51  1  0
 21 52  1  0
 23 53  1  0
M  END
$$$$
