
     RDKit          3D

 68 70  0  0  0  0  0  0  0  0999 V2000
   28.1833    1.1751    3.8342 C   0  0  0  0  0  0  0  0  0  0  0  0
   29.2927    0.1950    4.1959 C   0  0  0  0  0  0  0  0  0  0  0  0
   30.6691    0.8366    4.0363 C   0  0  0  0  0  0  0  0  0  0  0  0
   31.8275   -0.1126    4.3491 C   0  0  0  0  0  0  0  0  0  0  0  0
   31.9549   -0.4704    5.8315 C   0  0  0  0  0  0  0  0  0  0  0  0
   32.5060    0.6839    6.6745 C   0  0  0  0  0  0  0  0  0  0  0  0
   32.0376    0.6432    8.1437 C   0  0  0  0  0  0  0  0  0  0  0  0
   32.5936   -0.6138    8.8178 C   0  0  0  0  0  0  0  0  0  0  0  0
   32.5995    1.8627    8.8891 C   0  0  0  0  0  0  0  0  0  0  0  0
   30.5189    0.7022    8.1642 C   0  0  0  0  0  0  0  0  0  0  0  0
   29.8672    1.7892    7.6023 C   0  0  0  0  0  0  0  0  0  0  0  0
   28.4816    1.8481    7.5385 C   0  0  0  0  0  0  0  0  0  0  0  0
   27.6917    0.7905    7.9990 C   0  0  0  0  0  0  0  0  0  0  0  0
   26.1994    0.8209    7.7655 C   0  0  2  0  0  0  0  0  0  0  0  0
   25.6988   -0.4049    6.9898 C   0  0  0  0  0  0  0  0  0  0  0  0
   24.2488   -0.2593    6.6245 C   0  0  0  0  0  0  0  0  0  0  0  0
   23.5529   -1.5502    6.2729 C   0  0  0  0  0  0  0  0  0  0  0  0
   23.5186   -2.4531    7.3612 O   0  0  0  0  0  0  0  0  0  0  0  0
   23.6075    0.9001    6.6699 C   0  0  0  0  0  0  0  0  0  0  0  0
   24.2716    2.2012    7.0045 C   0  0  0  0  0  0  0  0  0  0  0  0
   25.7876    2.0441    6.9353 C   0  0  1  0  0  0  0  0  0  0  0  0
   26.6034    3.2863    7.3189 C   0  0  0  0  0  0  0  0  0  0  0  0
   26.2477    4.4887    6.4430 C   0  0  0  0  0  0  0  0  0  0  0  0
   26.4798    3.6653    8.7984 C   0  0  0  0  0  0  0  0  0  0  0  0
   27.9700    3.0000    7.0143 O   0  0  0  0  0  0  0  0  0  0  0  0
   28.3375   -0.2510    8.6679 C   0  0  0  0  0  0  0  0  0  0  0  0
   27.5905   -1.3548    9.3627 C   0  0  0  0  0  0  0  0  0  0  0  0
   29.7256   -0.2840    8.7322 C   0  0  0  0  0  0  0  0  0  0  0  0
   28.3046    1.5335    2.8136 H   0  0  0  0  0  0  0  0  0  0  0  0
   27.2075    0.6984    3.9124 H   0  0  0  0  0  0  0  0  0  0  0  0
   28.2084    2.0318    4.5042 H   0  0  0  0  0  0  0  0  0  0  0  0
   29.1531   -0.1284    5.2292 H   0  0  0  0  0  0  0  0  0  0  0  0
   29.2271   -0.6874    3.5542 H   0  0  0  0  0  0  0  0  0  0  0  0
   30.7738    1.1830    3.0046 H   0  0  0  0  0  0  0  0  0  0  0  0
   30.7203    1.7141    4.6822 H   0  0  0  0  0  0  0  0  0  0  0  0
   32.7628    0.3440    4.0149 H   0  0  0  0  0  0  0  0  0  0  0  0
   31.6876   -1.0313    3.7736 H   0  0  0  0  0  0  0  0  0  0  0  0
   32.6128   -1.3367    5.9260 H   0  0  0  0  0  0  0  0  0  0  0  0
   30.9746   -0.7599    6.2110 H   0  0  0  0  0  0  0  0  0  0  0  0
   33.5980    0.6689    6.6480 H   0  0  0  0  0  0  0  0  0  0  0  0
   32.1876    1.6297    6.2376 H   0  0  0  0  0  0  0  0  0  0  0  0
   32.3347   -0.6321    9.8742 H   0  0  0  0  0  0  0  0  0  0  0  0
   32.2182   -1.5170    8.3456 H   0  0  0  0  0  0  0  0  0  0  0  0
   33.6790   -0.6164    8.7378 H   0  0  0  0  0  0  0  0  0  0  0  0
   33.6871    1.8295    8.8974 H   0  0  0  0  0  0  0  0  0  0  0  0
   32.2908    2.7919    8.4190 H   0  0  0  0  0  0  0  0  0  0  0  0
   32.2464    1.8680    9.9183 H   0  0  0  0  0  0  0  0  0  0  0  0
   30.4072    2.6319    7.2015 H   0  0  0  0  0  0  0  0  0  0  0  0
   25.6752    0.8526    8.7300 H   0  0  0  0  0  0  0  0  0  0  0  0
   26.2961   -0.5305    6.0808 H   0  0  0  0  0  0  0  0  0  0  0  0
   25.8034   -1.3206    7.5695 H   0  0  0  0  0  0  0  0  0  0  0  0
   24.1069   -2.0734    5.4880 H   0  0  0  0  0  0  0  0  0  0  0  0
   22.5356   -1.3477    5.9094 H   0  0  0  0  0  0  0  0  0  0  0  0
   23.0572   -2.0286    8.0929 H   0  0  0  0  0  0  0  0  0  0  0  0
   22.5516    0.9517    6.4373 H   0  0  0  0  0  0  0  0  0  0  0  0
   23.9329    2.9635    6.2996 H   0  0  0  0  0  0  0  0  0  0  0  0
   23.9591    2.5197    8.0043 H   0  0  0  0  0  0  0  0  0  0  0  0
   26.0491    1.8339    5.8911 H   0  0  0  0  0  0  0  0  0  0  0  0
   27.0006    5.2608    6.5791 H   0  0  0  0  0  0  0  0  0  0  0  0
   25.2774    4.8906    6.7176 H   0  0  0  0  0  0  0  0  0  0  0  0
   26.2368    4.2026    5.3942 H   0  0  0  0  0  0  0  0  0  0  0  0
   27.0850    4.5477    8.9937 H   0  0  0  0  0  0  0  0  0  0  0  0
   26.8387    2.8602    9.4346 H   0  0  0  0  0  0  0  0  0  0  0  0
   25.4474    3.8881    9.0517 H   0  0  0  0  0  0  0  0  0  0  0  0
   28.1614   -1.6946   10.2251 H   0  0  0  0  0  0  0  0  0  0  0  0
   26.6146   -1.0241    9.7085 H   0  0  0  0  0  0  0  0  0  0  0  0
   27.4548   -2.2121    8.7036 H   0  0  0  0  0  0  0  0  0  0  0  0
   30.1787   -1.1180    9.2432 H   0  0  0  0  0  0  0  0  0  0  0  0
  1  2  1  0
  2  3  1  0
  3  4  1  0
  4  5  1  0
  5  6  1  0
  6  7  1  0
  7  8  1  0
  7  9  1  0
  7 10  1  0
 10 11  2  0
 11 12  1  0
 12 13  2  0
 13 14  1  0
 14 15  1  0
 15 16  1  0
 16 17  1  0
 17 18  1  0
 16 19  2  0
 19 20  1  0
 20 21  1  0
 21 22  1  0
 22 23  1  0
 22 24  1  0
 22 25  1  0
 13 26  1  0
 26 27  1  0
 26 28  2  0
 28 10  1  0
 25 12  1  0
 21 14  1  0
  1 29  1  0
  1 30  1  0
  1 31  1  0
  2 32  1  0
  2 33  1  0
  3 34  1  0
  3 35  1  0
  4 36  1  0
  4 37  1  0
  5 38  1  0
  5 39  1  0
  6 40  1  0
  6 41  1  0
  8 42  1  0
  8 43  1  0
  8 44  1  0
  9 45  1  0
  9 46  1  0
  9 47  1  0
 11 48  1  0
 14 49  1  1
 15 50  1  0
 15 51  1  0
 17 52  1  0
 17 53  1  0
 18 54  1  0
 19 55  1  0
 20 56  1  0
 20 57  1  0
 21 58  1  6
 23 59  1  0
 23 60  1  0
 23 61  1  0
 24 62  1  0
 24 63  1  0
 24 64  1  0
 27 65  1  0
 27 66  1  0
 27 67  1  0
 28 68  1  0
M  END
$$$$
