
     RDKit          3D

 53 55  0  0  0  0  0  0  0  0999 V2000
   22.1640    4.6974    3.3501 C   0  0  0  0  0  0  0  0  0  0  0  0
   22.2529    3.1773    3.4068 C   0  0  0  0  0  0  0  0  0  0  0  0
   22.9982    2.6987    4.6501 C   0  0  0  0  0  0  0  0  0  0  0  0
   23.0924    1.1769    4.7110 C   0  0  0  0  0  0  0  0  0  0  0  0
   23.8401    0.6904    5.9590 C   0  0  0  0  0  0  0  0  0  0  0  0
   25.2747    1.1334    5.9434 C   0  0  0  0  0  0  0  0  0  0  0  0
   25.7042    2.2004    6.7187 C   0  0  0  0  0  0  0  0  0  0  0  0
   27.0187    2.6409    6.6620 C   0  0  0  0  0  0  0  0  0  0  0  0
   27.4282    3.6688    7.4662 O   0  0  0  0  0  0  0  0  0  0  0  0
   27.9441    2.0379    5.8062 C   0  0  0  0  0  0  0  0  0  0  0  0
   27.5235    0.9133    5.0922 C   0  0  0  0  0  0  0  0  0  0  0  0
   26.1990    0.4856    5.1462 C   0  0  0  0  0  0  0  0  0  0  0  0
   28.3458    0.1592    4.3160 O   0  0  0  0  0  0  0  0  0  0  0  0
   29.7590    0.3312    4.4726 C   0  0  0  0  0  0  0  0  0  0  0  0
   30.2153   -0.3777    5.7516 C   0  0  0  0  0  0  0  0  0  0  0  0
   30.3699   -0.3600    3.2517 C   0  0  0  0  0  0  0  0  0  0  0  0
   30.0424    1.8394    4.4783 C   0  0  2  0  0  0  0  0  0  0  0  0
   31.5076    2.2612    4.4600 C   0  0  0  0  0  0  0  0  0  0  0  0
   31.5821    3.7533    4.1342 C   0  0  0  0  0  0  0  0  0  0  0  0
   30.5191    4.5582    4.8333 C   0  0  0  0  0  0  0  0  0  0  0  0
   30.6582    6.0446    4.6888 C   0  0  0  0  0  0  0  0  0  0  0  0
   29.5196    4.0052    5.5053 C   0  0  0  0  0  0  0  0  0  0  0  0
   29.3704    2.5166    5.6770 C   0  0  1  0  0  0  0  0  0  0  0  0
   21.6343    5.0816    4.2194 H   0  0  0  0  0  0  0  0  0  0  0  0
   23.1595    5.1358    3.3353 H   0  0  0  0  0  0  0  0  0  0  0  0
   21.6338    5.0185    2.4564 H   0  0  0  0  0  0  0  0  0  0  0  0
   21.2453    2.7542    3.4031 H   0  0  0  0  0  0  0  0  0  0  0  0
   22.7686    2.8109    2.5164 H   0  0  0  0  0  0  0  0  0  0  0  0
   22.4822    3.0653    5.5413 H   0  0  0  0  0  0  0  0  0  0  0  0
   24.0058    3.1198    4.6508 H   0  0  0  0  0  0  0  0  0  0  0  0
   23.6106    0.8126    3.8219 H   0  0  0  0  0  0  0  0  0  0  0  0
   22.0856    0.7518    4.7111 H   0  0  0  0  0  0  0  0  0  0  0  0
   23.3406    1.0760    6.8502 H   0  0  0  0  0  0  0  0  0  0  0  0
   23.7984   -0.4005    5.9900 H   0  0  0  0  0  0  0  0  0  0  0  0
   25.0098    2.6985    7.3836 H   0  0  0  0  0  0  0  0  0  0  0  0
   26.6850    3.9539    8.0112 H   0  0  0  0  0  0  0  0  0  0  0  0
   25.9201   -0.3753    4.5594 H   0  0  0  0  0  0  0  0  0  0  0  0
   30.0531   -1.4483    5.6488 H   0  0  0  0  0  0  0  0  0  0  0  0
   31.2717   -0.1969    5.9278 H   0  0  0  0  0  0  0  0  0  0  0  0
   29.6437   -0.0306    6.6086 H   0  0  0  0  0  0  0  0  0  0  0  0
   31.4419   -0.4799    3.3733 H   0  0  0  0  0  0  0  0  0  0  0  0
   30.1696    0.2139    2.3507 H   0  0  0  0  0  0  0  0  0  0  0  0
   29.9164   -1.3415    3.1406 H   0  0  0  0  0  0  0  0  0  0  0  0
   29.5659    2.2336    3.5708 H   0  0  0  0  0  0  0  0  0  0  0  0
   32.0726    1.6989    3.7159 H   0  0  0  0  0  0  0  0  0  0  0  0
   31.9556    2.0757    5.4380 H   0  0  0  0  0  0  0  0  0  0  0  0
   32.5680    4.1453    4.3995 H   0  0  0  0  0  0  0  0  0  0  0  0
   31.4640    3.8971    3.0542 H   0  0  0  0  0  0  0  0  0  0  0  0
   30.6803    6.3232    3.6352 H   0  0  0  0  0  0  0  0  0  0  0  0
   31.5915    6.3832    5.1390 H   0  0  0  0  0  0  0  0  0  0  0  0
   29.8329    6.5619    5.1702 H   0  0  0  0  0  0  0  0  0  0  0  0
   28.7856    4.6264    5.9906 H   0  0  0  0  0  0  0  0  0  0  0  0
   29.9030    2.2456    6.6014 H   0  0  0  0  0  0  0  0  0  0  0  0
  1  2  1  0
  2  3  1  0
  3  4  1  0
  4  5  1  0
  5  6  1  0
  6  7  2  0
  7  8  1  0
  8  9  1  0
  8 10  2  0
 10 11  1  0
 11 12  2  0
 11 13  1  0
 13 14  1  0
 14 15  1  0
 14 16  1  0
 14 17  1  0
 17 18  1  0
 18 19  1  0
 19 20  1  0
 20 21  1  0
 20 22  2  0
 22 23  1  0
 12  6  1  0
 23 17  1  0
 23 10  1  0
  1 24  1  0
  1 25  1  0
  1 26  1  0
  2 27  1  0
  2 28  1  0
  3 29  1  0
  3 30  1  0
  4 31  1  0
  4 32  1  0
  5 33  1  0
  5 34  1  0
  7 35  1  0
  9 36  1  0
 12 37  1  0
 15 38  1  0
 15 39  1  0
 15 40  1  0
 16 41  1  0
 16 42  1  0
 16 43  1  0
 17 44  1  6
 18 45  1  0
 18 46  1  0
 19 47  1  0
 19 48  1  0
 21 49  1  0
 21 50  1  0
 21 51  1  0
 22 52  1  0
 23 53  1  1
M  END
$$$$
