
     RDKit          3D

 53 54  0  0  0  0  0  0  0  0999 V2000
   22.9999   -0.6446    4.9808 C   0  0  0  0  0  0  0  0  0  0  0  0
   23.0297    0.8539    4.7066 C   0  0  0  0  0  0  0  0  0  0  0  0
   23.7829    1.6127    5.7961 C   0  0  0  0  0  0  0  0  0  0  0  0
   23.8503    3.1104    5.5110 C   0  0  0  0  0  0  0  0  0  0  0  0
   24.6251    3.8736    6.5939 C   0  0  0  0  0  0  0  0  0  0  0  0
   26.0465    3.3968    6.6697 C   0  0  0  0  0  0  0  0  0  0  0  0
   26.9552    3.7557    5.6899 C   0  0  0  0  0  0  0  0  0  0  0  0
   28.2510    3.2529    5.7010 C   0  0  0  0  0  0  0  0  0  0  0  0
   29.0755    3.6392    4.6918 O   0  0  0  0  0  0  0  0  0  0  0  0
   28.6659    2.3761    6.7052 C   0  0  0  0  0  0  0  0  0  0  0  0
   30.0220    1.7107    6.6791 C   0  0  2  0  0  0  0  0  0  0  0  0
   31.1391    2.6843    6.4267 C   0  0  0  0  0  0  0  0  0  0  0  0
   32.1788    2.4565    5.6310 C   0  0  0  0  0  0  0  0  0  0  0  0
   33.2650    3.4661    5.4182 C   0  0  0  0  0  0  0  0  0  0  0  0
   32.3261    1.1677    4.8700 C   0  0  0  0  0  0  0  0  0  0  0  0
   31.4502    0.0649    5.4577 C   0  0  0  0  0  0  0  0  0  0  0  0
   30.0202    0.5783    5.6241 C   0  0  1  0  0  0  0  0  0  0  0  0
   29.0250   -0.4881    6.0077 C   0  0  0  0  0  0  0  0  0  0  0  0
   29.4384   -1.4802    7.0507 C   0  0  0  0  0  0  0  0  0  0  0  0
   27.8175   -0.5098    5.4645 C   0  0  0  0  0  0  0  0  0  0  0  0
   27.7503    2.0409    7.7025 C   0  0  0  0  0  0  0  0  0  0  0  0
   28.1572    1.1965    8.6983 O   0  0  0  0  0  0  0  0  0  0  0  0
   26.4596    2.5477    7.6855 C   0  0  0  0  0  0  0  0  0  0  0  0
   22.4617   -1.1692    4.1947 H   0  0  0  0  0  0  0  0  0  0  0  0
   24.0119   -1.0408    5.0278 H   0  0  0  0  0  0  0  0  0  0  0  0
   22.5077   -0.8498    5.9293 H   0  0  0  0  0  0  0  0  0  0  0  0
   23.5128    1.0356    3.7439 H   0  0  0  0  0  0  0  0  0  0  0  0
   22.0068    1.2327    4.6400 H   0  0  0  0  0  0  0  0  0  0  0  0
   23.2886    1.4482    6.7570 H   0  0  0  0  0  0  0  0  0  0  0  0
   24.7983    1.2176    5.8718 H   0  0  0  0  0  0  0  0  0  0  0  0
   24.3383    3.2690    4.5473 H   0  0  0  0  0  0  0  0  0  0  0  0
   22.8373    3.5147    5.4447 H   0  0  0  0  0  0  0  0  0  0  0  0
   24.6073    4.9391    6.3549 H   0  0  0  0  0  0  0  0  0  0  0  0
   24.1322    3.7314    7.5576 H   0  0  0  0  0  0  0  0  0  0  0  0
   26.6746    4.4227    4.8902 H   0  0  0  0  0  0  0  0  0  0  0  0
   29.9729    3.3155    4.8763 H   0  0  0  0  0  0  0  0  0  0  0  0
   30.1790    1.2685    7.6692 H   0  0  0  0  0  0  0  0  0  0  0  0
   31.0720    3.6132    6.9802 H   0  0  0  0  0  0  0  0  0  0  0  0
   33.3816    3.6760    4.3551 H   0  0  0  0  0  0  0  0  0  0  0  0
   34.2165    3.0801    5.7839 H   0  0  0  0  0  0  0  0  0  0  0  0
   33.0455    4.3956    5.9373 H   0  0  0  0  0  0  0  0  0  0  0  0
   33.3746    0.8589    4.8809 H   0  0  0  0  0  0  0  0  0  0  0  0
   32.0550    1.3394    3.8221 H   0  0  0  0  0  0  0  0  0  0  0  0
   31.4613   -0.8068    4.8001 H   0  0  0  0  0  0  0  0  0  0  0  0
   31.8509   -0.2303    6.4288 H   0  0  0  0  0  0  0  0  0  0  0  0
   29.6980    1.0054    4.6676 H   0  0  0  0  0  0  0  0  0  0  0  0
   29.7647   -0.9672    7.9536 H   0  0  0  0  0  0  0  0  0  0  0  0
   30.2629   -2.0953    6.6927 H   0  0  0  0  0  0  0  0  0  0  0  0
   28.6070   -2.1321    7.3056 H   0  0  0  0  0  0  0  0  0  0  0  0
   27.0805   -1.2435    5.7462 H   0  0  0  0  0  0  0  0  0  0  0  0
   27.5109    0.2080    4.7220 H   0  0  0  0  0  0  0  0  0  0  0  0
   27.4159    1.0372    9.2936 H   0  0  0  0  0  0  0  0  0  0  0  0
   25.7661    2.2615    8.4657 H   0  0  0  0  0  0  0  0  0  0  0  0
  1  2  1  0
  2  3  1  0
  3  4  1  0
  4  5  1  0
  5  6  1  0
  6  7  2  0
  7  8  1  0
  8  9  1  0
  8 10  2  0
 10 11  1  0
 11 12  1  0
 12 13  2  0
 13 14  1  0
 13 15  1  0
 15 16  1  0
 16 17  1  0
 17 18  1  0
 18 19  1  0
 18 20  2  0
 10 21  1  0
 21 22  1  0
 21 23  2  0
 23  6  1  0
 17 11  1  0
  1 24  1  0
  1 25  1  0
  1 26  1  0
  2 27  1  0
  2 28  1  0
  3 29  1  0
  3 30  1  0
  4 31  1  0
  4 32  1  0
  5 33  1  0
  5 34  1  0
  7 35  1  0
  9 36  1  0
 11 37  1  1
 12 38  1  0
 14 39  1  0
 14 40  1  0
 14 41  1  0
 15 42  1  0
 15 43  1  0
 16 44  1  0
 16 45  1  0
 17 46  1  6
 19 47  1  0
 19 48  1  0
 19 49  1  0
 20 50  1  0
 20 51  1  0
 22 52  1  0
 23 53  1  0
M  END
$$$$
