
     RDKit          3D

 54 57  0  0  0  0  0  0  0  0999 V2000
   25.5348    1.5440    3.4033 C   0  0  0  0  0  0  0  0  0  0  0  0
   25.5018    1.9382    4.8841 C   0  0  2  0  0  0  0  0  0  0  0  0
   24.6573    0.9095    5.6580 C   0  0  0  0  0  0  0  0  0  0  0  0
   23.1820    0.9092    5.2480 C   0  0  0  0  0  0  0  0  0  0  0  0
   22.5666    2.2827    5.3395 C   0  0  0  0  0  0  0  0  0  0  0  0
   21.5194    2.4987    5.8968 O   0  0  0  0  0  0  0  0  0  0  0  0
   23.3773    3.3608    4.6664 C   0  0  0  0  0  0  0  0  0  0  0  0
   24.8435    3.3164    5.1129 C   0  0  2  0  0  0  0  0  0  0  0  0
   25.6450    4.4439    4.4675 C   0  0  0  0  0  0  0  0  0  0  0  0
   27.0380    4.4913    5.0829 C   0  0  0  0  0  0  0  0  0  0  0  0
   27.7586    3.1567    4.8834 C   0  0  2  0  0  0  0  0  0  0  0  0
   26.9325    2.0047    5.5003 C   0  0  2  0  0  0  0  0  0  0  0  0
   27.6562    0.6463    5.4417 C   0  0  0  0  0  0  0  0  0  0  0  0
   29.1298    0.6845    5.8661 C   0  0  0  0  0  0  0  0  0  0  0  0
   29.8627    1.7939    5.1213 C   0  0  1  0  0  0  0  0  0  0  0  0
   29.1905    3.1520    5.4483 C   0  0  1  0  0  0  0  0  0  0  0  0
   30.1799    4.1434    4.8139 C   0  0  0  0  0  0  0  0  0  0  0  0
   31.5637    3.5299    5.1033 C   0  0  0  0  0  0  0  0  0  0  0  0
   31.3302    2.0600    5.5415 C   0  0  2  0  0  0  0  0  0  0  0  0
   32.2846    1.1642    5.0388 O   0  0  0  0  0  0  0  0  0  0  0  0
   29.1740    3.4620    6.9550 C   0  0  0  0  0  0  0  0  0  0  0  0
   29.8827    1.4503    3.6216 C   0  0  0  0  0  0  0  0  0  0  0  0
   24.5686    1.7005    2.9330 H   0  0  0  0  0  0  0  0  0  0  0  0
   26.2663    2.1212    2.8469 H   0  0  0  0  0  0  0  0  0  0  0  0
   25.7819    0.4904    3.2979 H   0  0  0  0  0  0  0  0  0  0  0  0
   25.0501   -0.0956    5.5005 H   0  0  0  0  0  0  0  0  0  0  0  0
   24.7206    1.1279    6.7269 H   0  0  0  0  0  0  0  0  0  0  0  0
   22.6172    0.2220    5.8808 H   0  0  0  0  0  0  0  0  0  0  0  0
   23.0858    0.5687    4.2146 H   0  0  0  0  0  0  0  0  0  0  0  0
   22.9450    4.3336    4.9098 H   0  0  0  0  0  0  0  0  0  0  0  0
   23.3044    3.2278    3.5849 H   0  0  0  0  0  0  0  0  0  0  0  0
   24.8483    3.4937    6.1958 H   0  0  0  0  0  0  0  0  0  0  0  0
   25.1368    5.3956    4.6383 H   0  0  0  0  0  0  0  0  0  0  0  0
   25.7089    4.2942    3.3888 H   0  0  0  0  0  0  0  0  0  0  0  0
   27.6214    5.2925    4.6259 H   0  0  0  0  0  0  0  0  0  0  0  0
   26.9336    4.7121    6.1457 H   0  0  0  0  0  0  0  0  0  0  0  0
   27.8360    3.0089    3.8048 H   0  0  0  0  0  0  0  0  0  0  0  0
   26.7859    2.2489    6.5576 H   0  0  0  0  0  0  0  0  0  0  0  0
   27.5988    0.2432    4.4321 H   0  0  0  0  0  0  0  0  0  0  0  0
   27.1397   -0.0543    6.0997 H   0  0  0  0  0  0  0  0  0  0  0  0
   29.5882   -0.2824    5.6474 H   0  0  0  0  0  0  0  0  0  0  0  0
   29.2096    0.8411    6.9414 H   0  0  0  0  0  0  0  0  0  0  0  0
   30.0044    4.2328    3.7416 H   0  0  0  0  0  0  0  0  0  0  0  0
   30.0908    5.1391    5.2456 H   0  0  0  0  0  0  0  0  0  0  0  0
   32.0870    4.0833    5.8813 H   0  0  0  0  0  0  0  0  0  0  0  0
   32.2000    3.5473    4.2166 H   0  0  0  0  0  0  0  0  0  0  0  0
   31.4341    1.9496    6.6236 H   0  0  0  0  0  0  0  0  0  0  0  0
   32.2946    1.2279    4.0770 H   0  0  0  0  0  0  0  0  0  0  0  0
   28.8163    4.4773    7.1069 H   0  0  0  0  0  0  0  0  0  0  0  0
   30.1703    3.4072    7.3790 H   0  0  0  0  0  0  0  0  0  0  0  0
   28.5314    2.7923    7.5151 H   0  0  0  0  0  0  0  0  0  0  0  0
   30.3410    0.4699    3.4960 H   0  0  0  0  0  0  0  0  0  0  0  0
   30.4528    2.1764    3.0477 H   0  0  0  0  0  0  0  0  0  0  0  0
   28.8884    1.3953    3.1955 H   0  0  0  0  0  0  0  0  0  0  0  0
  2  1  1  6
  2  3  1  0
  3  4  1  0
  4  5  1  0
  5  6  2  0
  5  7  1  0
  7  8  1  0
  8  9  1  0
  9 10  1  0
 10 11  1  0
 11 12  1  0
 12 13  1  0
 13 14  1  0
 14 15  1  0
 15 16  1  0
 16 17  1  0
 17 18  1  0
 18 19  1  0
 19 20  1  0
 16 21  1  1
 15 22  1  6
  8  2  1  0
 12  2  1  0
 16 11  1  0
 19 15  1  0
  1 23  1  0
  1 24  1  0
  1 25  1  0
  3 26  1  0
  3 27  1  0
  4 28  1  0
  4 29  1  0
  7 30  1  0
  7 31  1  0
  8 32  1  1
  9 33  1  0
  9 34  1  0
 10 35  1  0
 10 36  1  0
 11 37  1  6
 12 38  1  1
 13 39  1  0
 13 40  1  0
 14 41  1  0
 14 42  1  0
 17 43  1  0
 17 44  1  0
 18 45  1  0
 18 46  1  0
 19 47  1  1
 20 48  1  0
 21 49  1  0
 21 50  1  0
 21 51  1  0
 22 52  1  0
 22 53  1  0
 22 54  1  0
M  END
$$$$
